1
    SWAT May 26   VER 2020/Rev 681                                                                       0/ 0/   0      0: 0: 0

    General Input/Output section (file.cio):                                        
    2024/8/23 0:00:00 ARCGIS-SWAT interface AV                                      
                                                                                    
         Number of years in run:   10
         Area of watershed:     5215.535 km2
         Random number generator cycles: 0, use default numbers

         Initial random number seed: wet/dry day prob        748932582
         Initial random number seed: radiation              1948832765
         Initial random number seed: precipitation           857034417
         Initial random number seed: 0.5 hr rainfall          67377721
         Initial random number seed: wind speed              366304404
         Initial random number seed: irrigation             1094585182
         Initial random number seed: relative humidity      1767585417
         Initial random number seed: max temperature         608439319
         Initial random number seed: min temperature         592757081

         Precipitation data used in run:
          Multiple gages read for watershed
             Daily rainfall data used

         Temperature data used in run:
          Multiple gages read for watershed

         PET method used: Penman-Monteith

         Rainfall/Runoff/Routing Option:
          Daily rainfall data
          Runoff estimated with curve number method
          Daily stream routing
           Variable Storage routing method
           Channel dimensions remain constant
           Subbasin algae/CBOD loadings not modeled
           In-stream nutrient transformations modeled using QUAL2E equations

         Subbasin Input Summary:
          Sub Latitude  Elev(m) #HRUs Ponds Elevbnds Wetlnd
            1    24.99   482.78     9                   
            2    24.99   493.61     4                   
            3    24.99   581.50     7                   
            4    24.99   461.29     8                   
            5    24.99   501.90     4                   
            6    24.99   379.99     9                   
            7    24.99   307.73     6                   
            8    24.99   397.32     4                   
            9    24.99   416.01     4                   
           10    25.04   430.54     4                   
           11    25.04   416.34    10                   
           12    25.04   252.73    12                   
           13    25.04   333.70     4                   
           14    25.04   328.54    10                   
           15    25.04   239.56    14                   

         HRU Input Summary Table 1:
          Sub   HRU   Area(ha) Slope SlpLgth(m) Ovrlnd_N CondII_CN TimeConc(hr) ESCO EPCO
            1      1    2936.91 0.554       9.15    0.140     81.00        0.358 0.95 1.00
            1      2    9136.37 0.226      15.24    0.140     81.00        0.895 0.95 1.00
            1      3    4615.46 0.097      60.98    0.140     81.00        0.822 0.95 1.00
            1      4    6168.53 0.365       9.15    0.140     81.00        0.625 0.95 1.00
            1      5     998.96 0.080      60.98    0.010     92.00        0.197 0.95 1.00
            1      6     543.53 0.213      15.24    0.010     92.00        0.093 0.95 1.00
            1      7     300.99 0.362       9.15    0.010     92.00        0.056 0.95 1.00
            1      8     618.26 0.220      15.24    0.010     92.00        0.100 0.95 1.00
            1      9     506.19 0.092      60.98    0.010     92.00        0.145 0.95 1.00
            2     10   15106.90 0.097      60.98    0.140     81.00        1.427 0.95 1.00
            2     11   26046.72 0.223      15.24    0.140     81.00        1.782 0.95 1.00
            2     12    6497.56 0.556       9.15    0.140     81.00        0.565 0.95 1.00
            2     13   14911.01 0.363       9.15    0.140     81.00        1.097 0.95 1.00
            3     14    5733.94 0.370       9.15    0.140     81.00        0.653 0.95 1.00
            3     15    3736.67 0.097      60.98    0.140     81.00        0.795 0.95 1.00
            3     16    6070.24 0.611       9.15    0.140     81.00        0.670 0.95 1.00
            3     17    6948.76 0.225      15.24    0.140     81.00        0.807 0.95 1.00
            3     18    2310.77 0.373       9.15    0.140     73.00        0.342 0.95 1.00
            3     19    2552.55 0.605       9.15    0.140     73.00        0.354 0.95 1.00
            3     20    1969.84 0.232      15.24    0.140     73.00        0.358 0.95 1.00
            4     21    6715.41 0.225      15.24    0.140     81.00        0.712 0.95 1.00
            4     22    4390.35 0.365       9.15    0.140     81.00        0.484 0.95 1.00
            4     23    3587.36 0.097      60.98    0.140     81.00        0.737 0.95 1.00
            4     24    2436.11 0.564       9.15    0.140     81.00        0.313 0.95 1.00
            4     25     478.54 0.208      15.24    0.010     92.00        0.086 0.95 1.00
            4     26    1035.12 0.081      60.98    0.010     92.00        0.200 0.95 1.00
            4     27     742.59 0.213      15.24    0.010     92.00        0.112 0.95 1.00
            4     28     897.68 0.089      60.98    0.010     92.00        0.184 0.95 1.00
            5     29    5183.31 0.568       9.15    0.140     81.00        0.676 0.95 1.00
            5     30    8655.30 0.367       9.15    0.140     81.00        1.027 0.95 1.00
            5     31   11530.74 0.226      15.24    0.140     81.00        1.345 0.95 1.00
            5     32    5654.63 0.098      60.98    0.140     81.00        1.052 0.95 1.00
            6     33   13953.87 0.222      15.24    0.140     81.00        0.855 0.95 1.00
            6     34    8185.94 0.365       9.15    0.140     81.00        0.537 0.95 1.00
            6     35    4157.37 0.559       9.15    0.140     81.00        0.325 0.95 1.00
            6     36    9729.33 0.094      60.98    0.140     81.00        0.932 0.95 1.00
            6     37    1111.23 0.084      60.98    0.010     92.00        0.165 0.95 1.00
            6     38     602.23 0.211      15.24    0.010     92.00        0.075 0.95 1.00
            6     39     567.39 0.361       9.15    0.010     92.00        0.061 0.95 1.00
            6     40    1413.28 0.089      60.98    0.010     92.00        0.182 0.95 1.00
            6     41    1340.27 0.217      15.24    0.010     92.00        0.121 0.95 1.00
            7     42    1441.40 0.215      15.24    0.140     81.00        0.379 0.95 1.00
            7     43    1737.81 0.088      60.98    0.140     81.00        0.700 0.95 1.00
            7     44     444.12 0.358       9.15    0.140     81.00        0.173 0.95 1.00
            7     45    4007.95 0.361       9.15    0.140     81.00        0.674 0.95 1.00
            7     46    8387.67 0.221      15.24    0.140     81.00        1.258 0.95 1.00
            7     47    6047.19 0.092      60.98    0.140     81.00        1.253 0.95 1.00
            8     48    9186.67 0.553       9.15    0.140     81.00        0.660 0.95 1.00
            8     49   19220.42 0.365       9.15    0.140     81.00        1.199 0.95 1.00
            8     50   16396.89 0.097      60.98    0.140     81.00        1.373 0.95 1.00
            8     51   29546.23 0.224      15.24    0.140     81.00        1.757 0.95 1.00
            9     52    9102.46 0.366       9.15    0.140     81.00        1.080 0.95 1.00
            9     53   12599.26 0.226      15.24    0.140     81.00        1.456 0.95 1.00
            9     54    4526.39 0.553       9.15    0.140     81.00        0.616 0.95 1.00
            9     55    6014.00 0.098      60.98    0.140     81.00        1.095 0.95 1.00
           10     56    7904.95 0.364       9.15    0.140     81.00        0.702 0.95 1.00
           10     57    3764.11 0.556       9.15    0.140     81.00        0.398 0.95 1.00
           10     58    8041.44 0.095      60.98    0.140     81.00        1.032 0.95 1.00
           10     59   13707.12 0.223      15.24    0.140     81.00        1.133 0.95 1.00
           11     60    7660.41 0.224      15.24    0.140     81.00        0.873 0.95 1.00
           11     61    4256.45 0.097      60.98    0.140     81.00        0.845 0.95 1.00
           11     62    4824.26 0.365       9.15    0.140     81.00        0.578 0.95 1.00
           11     63    2275.66 0.552       9.15    0.140     81.00        0.331 0.95 1.00
           11     64     132.69 0.362       9.15    0.010     92.00        0.039 0.95 1.00
           11     65     263.90 0.221      15.24    0.010     92.00        0.067 0.95 1.00
           11     66     187.03 0.094      60.98    0.010     92.00        0.113 0.95 1.00
           11     67     460.90 0.363       9.15    0.010     92.00        0.081 0.95 1.00
           11     68     952.56 0.220      15.24    0.010     92.00        0.147 0.95 1.00
           11     69     683.39 0.096      60.98    0.010     92.00        0.172 0.95 1.00
           12     70     163.11 0.097      60.98    0.140     81.00        0.528 0.95 1.00
           12     71     255.18 0.218      15.24    0.140     81.00        0.320 0.95 1.00
           12     72      69.92 0.353       9.15    0.140     81.00        0.147 0.95 1.00
           12     73      96.16 0.220      15.24    0.140     84.00        0.215 0.95 1.00
           12     74      42.39 0.359       9.15    0.140     84.00        0.125 0.95 1.00
           12     75      66.81 0.096      60.98    0.140     84.00        0.463 0.95 1.00
           12     76       8.24 0.363       9.15    0.140     83.00        0.096 0.95 1.00
           12     77       9.97 0.099      60.98    0.140     83.00        0.414 0.95 1.00
           12     78      18.79 0.224      15.24    0.140     83.00        0.156 0.95 1.00
           12     79      13.57 0.365       9.15    0.140     87.00        0.101 0.95 1.00
           12     80      25.05 0.222      15.24    0.140     87.00        0.161 0.95 1.00
           12     81      14.91 0.105      60.98    0.140     87.00        0.411 0.95 1.00
           13     82   16292.48 0.367       9.15    0.140     81.00        1.103 0.95 1.00
           13     83   22386.53 0.225      15.24    0.140     81.00        1.479 0.95 1.00
           13     84   12017.70 0.097      60.98    0.140     81.00        1.184 0.95 1.00
           13     85    9580.43 0.568       9.15    0.140     81.00        0.715 0.95 1.00
           14     86   13796.71 0.365       9.15    0.140     81.00        0.858 0.95 1.00
           14     87   13985.61 0.096      60.98    0.140     81.00        1.186 0.95 1.00
           14     88   22314.26 0.223      15.24    0.140     81.00        1.311 0.95 1.00
           14     89    7132.16 0.562       9.15    0.140     81.00        0.509 0.95 1.00
           14     90     958.15 0.091      60.98    0.010     92.00        0.159 0.95 1.00
           14     91     935.16 0.217      15.24    0.010     92.00        0.102 0.95 1.00
           14     92     356.18 0.359       9.15    0.010     92.00        0.049 0.95 1.00
           14     93    2486.39 0.219      15.24    0.010     92.00        0.200 0.95 1.00
           14     94    1183.48 0.364       9.15    0.010     92.00        0.108 0.95 1.00
           14     95    2201.08 0.092      60.98    0.010     92.00        0.239 0.95 1.00
           15     96      84.11 0.082      60.98    0.140     81.00        0.478 0.95 1.00
           15     97     115.25 0.577       9.15    0.140     81.00        0.144 0.95 1.00
           15     98     143.37 0.368       9.15    0.140     81.00        0.169 0.95 1.00
           15     99     145.73 0.228      15.24    0.140     81.00        0.219 0.95 1.00
           15    100      88.56 0.611       9.15    0.140     84.00        0.128 0.95 1.00
           15    101      77.57 0.371       9.15    0.140     84.00        0.135 0.95 1.00
           15    102      99.42 0.226      15.24    0.140     84.00        0.196 0.95 1.00
           15    103     170.58 0.044      91.46    0.140     84.00        0.751 0.95 1.00
           15    104      21.32 0.045      91.46    0.140     83.00        0.666 0.95 1.00
           15    105      28.12 0.581       9.15    0.140     83.00        0.096 0.95 1.00
           15    106      12.30 0.379       9.15    0.140     83.00        0.096 0.95 1.00
           15    107      13.34 0.221      15.24    0.140     83.00        0.148 0.95 1.00
           15    108      37.09 0.219      15.24    0.140     87.00        0.163 0.95 1.00
           15    109     254.75 0.014     121.95    0.140     87.00        1.233 0.95 1.00

         HRU CN Input Summary Table:
          Sub   HRU   Area(ha)  LULC      Soil    CN1    CN2    CN3  Wilting Point (mm H2O)  Field Capacity (mm H2O)  Saturation (mm H2O)
            1      1    2936.91  BARL  Haplic A   64.3   81.0   92.0                   263.3                    113.0                272.9
            1      2    9136.37  BARL  Haplic A   64.3   81.0   92.0                   263.3                    113.0                272.9
            1      3    4615.46  BARL  Haplic A   64.3   81.0   92.0                   263.3                    113.0                272.9
            1      4    6168.53  BARL  Haplic A   64.3   81.0   92.0                   263.3                    113.0                272.9
            1      5     998.96  WATR  Cumulic    81.7   92.0   97.1                   116.5                    133.0                360.1
            1      6     543.53  WATR  Cumulic    81.7   92.0   97.1                   116.5                    133.0                360.1
            1      7     300.99  WATR  Haplic A   81.7   92.0   97.1                   263.3                    113.0                272.9
            1      8     618.26  WATR  Haplic A   81.7   92.0   97.1                   263.3                    113.0                272.9
            1      9     506.19  WATR  Haplic A   81.7   92.0   97.1                   263.3                    113.0                272.9
            2     10   15106.90  BARL  Haplic A   64.3   81.0   92.0                   263.3                    113.0                272.9
            2     11   26046.72  BARL  Haplic A   64.3   81.0   92.0                   263.3                    113.0                272.9
            2     12    6497.56  BARL  Haplic A   64.3   81.0   92.0                   263.3                    113.0                272.9
            2     13   14911.01  BARL  Haplic A   64.3   81.0   92.0                   263.3                    113.0                272.9
            3     14    5733.94  BARL  Haplic A   64.3   81.0   92.0                   263.3                    113.0                272.9
            3     15    3736.67  BARL  Haplic A   64.3   81.0   92.0                   263.3                    113.0                272.9
            3     16    6070.24  BARL  Haplic A   64.3   81.0   92.0                   263.3                    113.0                272.9
            3     17    6948.76  BARL  Haplic A   64.3   81.0   92.0                   263.3                    113.0                272.9
            3     18    2310.77  BARL  Haplic A   54.5   73.0   87.5                   157.5                    123.0                333.8
            3     19    2552.55  BARL  Haplic A   54.5   73.0   87.5                   157.5                    123.0                333.8
            3     20    1969.84  BARL  Haplic A   54.5   73.0   87.5                   157.5                    123.0                333.8
            4     21    6715.41  BARL  Haplic A   64.3   81.0   92.0                   263.3                    113.0                272.9
            4     22    4390.35  BARL  Haplic A   64.3   81.0   92.0                   263.3                    113.0                272.9
            4     23    3587.36  BARL  Haplic A   64.3   81.0   92.0                   263.3                    113.0                272.9
            4     24    2436.11  BARL  Haplic A   64.3   81.0   92.0                   263.3                    113.0                272.9
            4     25     478.54  WATR  Cumulic    81.7   92.0   97.1                   116.5                    133.0                360.1
            4     26    1035.12  WATR  Cumulic    81.7   92.0   97.1                   116.5                    133.0                360.1
            4     27     742.59  WATR  Haplic A   81.7   92.0   97.1                   263.3                    113.0                272.9
            4     28     897.68  WATR  Haplic A   81.7   92.0   97.1                   263.3                    113.0                272.9
            5     29    5183.31  BARL  Haplic A   64.3   81.0   92.0                   263.3                    113.0                272.9
            5     30    8655.30  BARL  Haplic A   64.3   81.0   92.0                   263.3                    113.0                272.9
            5     31   11530.74  BARL  Haplic A   64.3   81.0   92.0                   263.3                    113.0                272.9
            5     32    5654.63  BARL  Haplic A   64.3   81.0   92.0                   263.3                    113.0                272.9
            6     33   13953.87  BARL  Haplic A   64.3   81.0   92.0                   263.3                    113.0                272.9
            6     34    8185.94  BARL  Haplic A   64.3   81.0   92.0                   263.3                    113.0                272.9
            6     35    4157.37  BARL  Haplic A   64.3   81.0   92.0                   263.3                    113.0                272.9
            6     36    9729.33  BARL  Haplic A   64.3   81.0   92.0                   263.3                    113.0                272.9
            6     37    1111.23  WATR  Cumulic    81.7   92.0   97.1                   116.5                    133.0                360.1
            6     38     602.23  WATR  Cumulic    81.7   92.0   97.1                   116.5                    133.0                360.1
            6     39     567.39  WATR  Haplic A   81.7   92.0   97.1                   263.3                    113.0                272.9
            6     40    1413.28  WATR  Haplic A   81.7   92.0   97.1                   263.3                    113.0                272.9
            6     41    1340.27  WATR  Haplic A   81.7   92.0   97.1                   263.3                    113.0                272.9
            7     42    1441.40  BARL  Cumulic    64.3   81.0   92.0                   116.5                    133.0                360.1
            7     43    1737.81  BARL  Cumulic    64.3   81.0   92.0                   116.5                    133.0                360.1
            7     44     444.12  BARL  Cumulic    64.3   81.0   92.0                   116.5                    133.0                360.1
            7     45    4007.95  BARL  Haplic A   64.3   81.0   92.0                   263.3                    113.0                272.9
            7     46    8387.67  BARL  Haplic A   64.3   81.0   92.0                   263.3                    113.0                272.9
            7     47    6047.19  BARL  Haplic A   64.3   81.0   92.0                   263.3                    113.0                272.9
            8     48    9186.67  BARL  Haplic A   64.3   81.0   92.0                   263.3                    113.0                272.9
            8     49   19220.42  BARL  Haplic A   64.3   81.0   92.0                   263.3                    113.0                272.9
            8     50   16396.89  BARL  Haplic A   64.3   81.0   92.0                   263.3                    113.0                272.9
            8     51   29546.23  BARL  Haplic A   64.3   81.0   92.0                   263.3                    113.0                272.9
            9     52    9102.46  BARL  Haplic A   64.3   81.0   92.0                   263.3                    113.0                272.9
            9     53   12599.26  BARL  Haplic A   64.3   81.0   92.0                   263.3                    113.0                272.9
            9     54    4526.39  BARL  Haplic A   64.3   81.0   92.0                   263.3                    113.0                272.9
            9     55    6014.00  BARL  Haplic A   64.3   81.0   92.0                   263.3                    113.0                272.9
           10     56    7904.95  BARL  Haplic A   64.3   81.0   92.0                   263.3                    113.0                272.9
           10     57    3764.11  BARL  Haplic A   64.3   81.0   92.0                   263.3                    113.0                272.9
           10     58    8041.44  BARL  Haplic A   64.3   81.0   92.0                   263.3                    113.0                272.9
           10     59   13707.12  BARL  Haplic A   64.3   81.0   92.0                   263.3                    113.0                272.9
           11     60    7660.41  BARL  Haplic A   64.3   81.0   92.0                   263.3                    113.0                272.9
           11     61    4256.45  BARL  Haplic A   64.3   81.0   92.0                   263.3                    113.0                272.9
           11     62    4824.26  BARL  Haplic A   64.3   81.0   92.0                   263.3                    113.0                272.9
           11     63    2275.66  BARL  Haplic A   64.3   81.0   92.0                   263.3                    113.0                272.9
           11     64     132.69  WATR  Cumulic    81.7   92.0   97.1                   116.5                    133.0                360.1
           11     65     263.90  WATR  Cumulic    81.7   92.0   97.1                   116.5                    133.0                360.1
           11     66     187.03  WATR  Cumulic    81.7   92.0   97.1                   116.5                    133.0                360.1
           11     67     460.90  WATR  Haplic A   81.7   92.0   97.1                   263.3                    113.0                272.9
           11     68     952.56  WATR  Haplic A   81.7   92.0   97.1                   263.3                    113.0                272.9
           11     69     683.39  WATR  Haplic A   81.7   92.0   97.1                   263.3                    113.0                272.9
           12     70     163.11  BARL  Haplic A   64.3   81.0   92.0                   263.3                    113.0                272.9
           12     71     255.18  BARL  Haplic A   64.3   81.0   92.0                   263.3                    113.0                272.9
           12     72      69.92  BARL  Haplic A   64.3   81.0   92.0                   263.3                    113.0                272.9
           12     73      96.16  BARL  Water bo   68.4   84.0   93.5                     0.1                      0.3                 12.8
           12     74      42.39  BARL  Water bo   68.4   84.0   93.5                     0.1                      0.3                 12.8
           12     75      66.81  BARL  Water bo   68.4   84.0   93.5                     0.1                      0.3                 12.8
           12     76       8.24  POTA  Haplic A   67.0   83.0   93.1                   263.3                    113.0                272.9
           12     77       9.97  POTA  Haplic A   67.0   83.0   93.1                   263.3                    113.0                272.9
           12     78      18.79  POTA  Haplic A   67.0   83.0   93.1                   263.3                    113.0                272.9
           12     79      13.57  POTA  Water bo   73.0   87.0   95.0                     0.1                      0.3                 12.8
           12     80      25.05  POTA  Water bo   73.0   87.0   95.0                     0.1                      0.3                 12.8
           12     81      14.91  POTA  Water bo   73.0   87.0   95.0                     0.1                      0.3                 12.8
           13     82   16292.48  BARL  Haplic A   64.3   81.0   92.0                   263.3                    113.0                272.9
           13     83   22386.53  BARL  Haplic A   64.3   81.0   92.0                   263.3                    113.0                272.9
           13     84   12017.70  BARL  Haplic A   64.3   81.0   92.0                   263.3                    113.0                272.9
           13     85    9580.43  BARL  Haplic A   64.3   81.0   92.0                   263.3                    113.0                272.9
           14     86   13796.71  BARL  Haplic A   64.3   81.0   92.0                   263.3                    113.0                272.9
           14     87   13985.61  BARL  Haplic A   64.3   81.0   92.0                   263.3                    113.0                272.9
           14     88   22314.26  BARL  Haplic A   64.3   81.0   92.0                   263.3                    113.0                272.9
           14     89    7132.16  BARL  Haplic A   64.3   81.0   92.0                   263.3                    113.0                272.9
           14     90     958.15  WATR  Cumulic    81.7   92.0   97.1                   116.5                    133.0                360.1
           14     91     935.16  WATR  Cumulic    81.7   92.0   97.1                   116.5                    133.0                360.1
           14     92     356.18  WATR  Cumulic    81.7   92.0   97.1                   116.5                    133.0                360.1
           14     93    2486.39  WATR  Haplic A   81.7   92.0   97.1                   263.3                    113.0                272.9
           14     94    1183.48  WATR  Haplic A   81.7   92.0   97.1                   263.3                    113.0                272.9
           14     95    2201.08  WATR  Haplic A   81.7   92.0   97.1                   263.3                    113.0                272.9
           15     96      84.11  BARL  Haplic A   64.3   81.0   92.0                   263.3                    113.0                272.9
           15     97     115.25  BARL  Haplic A   64.3   81.0   92.0                   263.3                    113.0                272.9
           15     98     143.37  BARL  Haplic A   64.3   81.0   92.0                   263.3                    113.0                272.9
           15     99     145.73  BARL  Haplic A   64.3   81.0   92.0                   263.3                    113.0                272.9
           15    100      88.56  BARL  Water bo   68.4   84.0   93.5                     0.1                      0.3                 12.8
           15    101      77.57  BARL  Water bo   68.4   84.0   93.5                     0.1                      0.3                 12.8
           15    102      99.42  BARL  Water bo   68.4   84.0   93.5                     0.1                      0.3                 12.8
           15    103     170.58  BARL  Water bo   68.4   84.0   93.5                     0.1                      0.3                 12.8
           15    104      21.32  POTA  Haplic A   67.0   83.0   93.1                   263.3                    113.0                272.9
           15    105      28.12  POTA  Haplic A   67.0   83.0   93.1                   263.3                    113.0                272.9
           15    106      12.30  POTA  Haplic A   67.0   83.0   93.1                   263.3                    113.0                272.9
           15    107      13.34  POTA  Haplic A   67.0   83.0   93.1                   263.3                    113.0                272.9
           15    108      37.09  POTA  Water bo   73.0   87.0   95.0                     0.1                      0.3                 12.8
           15    109     254.75  POTA  Water bo   73.0   87.0   95.0                     0.1                      0.3                 12.8

         HRU Input Summary Table 2:
          Sub   HRU   Area(ha)         SoilName Hydgrp MaxRtDpth(mm) Albedo USLE_K USLE_P USLE_LS ProfileAWC(mm) IniSoilH2O(mm)
            1      1    2936.91 Haplic Acrisols    C          1000.00   0.10   0.17   1.00   10.38    113.000         61.613
            1      2    9136.37 Haplic Acrisols    C          1000.00   0.10   0.17   1.00    3.40    113.000         61.613
            1      3    4615.46 Haplic Acrisols    C          1000.00   0.10   0.17   1.00    2.01    113.000         61.613
            1      4    6168.53 Haplic Acrisols    C          1000.00   0.10   0.17   1.00    5.48    113.000         61.613
            1      5     998.96 Cumulic Anthroso   C          1000.00   0.10   0.20   1.00    1.50    133.000         72.519
            1      6     543.53 Cumulic Anthroso   C          1000.00   0.10   0.20   1.00    3.08    133.000         72.519
            1      7     300.99 Haplic Acrisols    C          1000.00   0.10   0.17   1.00    5.41    113.000         61.613
            1      8     618.26 Haplic Acrisols    C          1000.00   0.10   0.17   1.00    3.25    113.000         61.613
            1      9     506.19 Haplic Acrisols    C          1000.00   0.10   0.17   1.00    1.85    113.000         61.613
            2     10   15106.90 Haplic Acrisols    C          1000.00   0.10   0.17   1.00    2.01    113.000         61.613
            2     11   26046.72 Haplic Acrisols    C          1000.00   0.10   0.17   1.00    3.32    113.000         61.613
            2     12    6497.56 Haplic Acrisols    C          1000.00   0.10   0.17   1.00   10.43    113.000         61.613
            2     13   14911.01 Haplic Acrisols    C          1000.00   0.10   0.17   1.00    5.44    113.000         61.613
            3     14    5733.94 Haplic Acrisols    C          1000.00   0.10   0.17   1.00    5.61    113.000         61.613
            3     15    3736.67 Haplic Acrisols    C          1000.00   0.10   0.17   1.00    2.01    113.000         61.613
            3     16    6070.24 Haplic Acrisols    C          1000.00   0.10   0.17   1.00   11.90    113.000         61.613
            3     17    6948.76 Haplic Acrisols    C          1000.00   0.10   0.17   1.00    3.37    113.000         61.613
            3     18    2310.77 Haplic Alisols     B          1000.00   0.10   0.18   1.00    5.68    123.000         67.066
            3     19    2552.55 Haplic Alisols     B          1000.00   0.10   0.18   1.00   11.74    123.000         67.066
            3     20    1969.84 Haplic Alisols     B          1000.00   0.10   0.18   1.00    3.55    123.000         67.066
            4     21    6715.41 Haplic Acrisols    C          1000.00   0.10   0.17   1.00    3.37    113.000         61.613
            4     22    4390.35 Haplic Acrisols    C          1000.00   0.10   0.17   1.00    5.48    113.000         61.613
            4     23    3587.36 Haplic Acrisols    C          1000.00   0.10   0.17   1.00    2.01    113.000         61.613
            4     24    2436.11 Haplic Acrisols    C          1000.00   0.10   0.17   1.00   10.65    113.000         61.613
            4     25     478.54 Cumulic Anthroso   C          1000.00   0.10   0.20   1.00    2.96    133.000         72.519
            4     26    1035.12 Cumulic Anthroso   C          1000.00   0.10   0.20   1.00    1.53    133.000         72.519
            4     27     742.59 Haplic Acrisols    C          1000.00   0.10   0.17   1.00    3.08    113.000         61.613
            4     28     897.68 Haplic Acrisols    C          1000.00   0.10   0.17   1.00    1.76    113.000         61.613
            5     29    5183.31 Haplic Acrisols    C          1000.00   0.10   0.17   1.00   10.75    113.000         61.613
            5     30    8655.30 Haplic Acrisols    C          1000.00   0.10   0.17   1.00    5.53    113.000         61.613
            5     31   11530.74 Haplic Acrisols    C          1000.00   0.10   0.17   1.00    3.40    113.000         61.613
            5     32    5654.63 Haplic Acrisols    C          1000.00   0.10   0.17   1.00    2.04    113.000         61.613
            6     33   13953.87 Haplic Acrisols    C          1000.00   0.10   0.17   1.00    3.30    113.000         61.613
            6     34    8185.94 Haplic Acrisols    C          1000.00   0.10   0.17   1.00    5.48    113.000         61.613
            6     35    4157.37 Haplic Acrisols    C          1000.00   0.10   0.17   1.00   10.51    113.000         61.613
            6     36    9729.33 Haplic Acrisols    C          1000.00   0.10   0.17   1.00    1.92    113.000         61.613
            6     37    1111.23 Cumulic Anthroso   C          1000.00   0.10   0.20   1.00    1.61    133.000         72.519
            6     38     602.23 Cumulic Anthroso   C          1000.00   0.10   0.20   1.00    3.03    133.000         72.519
            6     39     567.39 Haplic Acrisols    C          1000.00   0.10   0.17   1.00    5.39    113.000         61.613
            6     40    1413.28 Haplic Acrisols    C          1000.00   0.10   0.17   1.00    1.76    113.000         61.613
            6     41    1340.27 Haplic Acrisols    C          1000.00   0.10   0.17   1.00    3.18    113.000         61.613
            7     42    1441.40 Cumulic Anthroso   C          1000.00   0.10   0.20   1.00    3.13    133.000         72.519
            7     43    1737.81 Cumulic Anthroso   C          1000.00   0.10   0.20   1.00    1.73    133.000         72.519
            7     44     444.12 Cumulic Anthroso   C          1000.00   0.10   0.20   1.00    5.32    133.000         72.519
            7     45    4007.95 Haplic Acrisols    C          1000.00   0.10   0.17   1.00    5.39    113.000         61.613
            7     46    8387.67 Haplic Acrisols    C          1000.00   0.10   0.17   1.00    3.27    113.000         61.613
            7     47    6047.19 Haplic Acrisols    C          1000.00   0.10   0.17   1.00    1.85    113.000         61.613
            8     48    9186.67 Haplic Acrisols    C          1000.00   0.10   0.17   1.00   10.35    113.000         61.613
            8     49   19220.42 Haplic Acrisols    C          1000.00   0.10   0.17   1.00    5.48    113.000         61.613
            8     50   16396.89 Haplic Acrisols    C          1000.00   0.10   0.17   1.00    2.01    113.000         61.613
            8     51   29546.23 Haplic Acrisols    C          1000.00   0.10   0.17   1.00    3.35    113.000         61.613
            9     52    9102.46 Haplic Acrisols    C          1000.00   0.10   0.17   1.00    5.51    113.000         61.613
            9     53   12599.26 Haplic Acrisols    C          1000.00   0.10   0.17   1.00    3.40    113.000         61.613
            9     54    4526.39 Haplic Acrisols    C          1000.00   0.10   0.17   1.00   10.35    113.000         61.613
            9     55    6014.00 Haplic Acrisols    C          1000.00   0.10   0.17   1.00    2.04    113.000         61.613
           10     56    7904.95 Haplic Acrisols    C          1000.00   0.10   0.17   1.00    5.46    113.000         61.613
           10     57    3764.11 Haplic Acrisols    C          1000.00   0.10   0.17   1.00   10.43    113.000         61.613
           10     58    8041.44 Haplic Acrisols    C          1000.00   0.10   0.17   1.00    1.95    113.000         61.613
           10     59   13707.12 Haplic Acrisols    C          1000.00   0.10   0.17   1.00    3.32    113.000         61.613
           11     60    7660.41 Haplic Acrisols    C          1000.00   0.10   0.17   1.00    3.35    113.000         61.613
           11     61    4256.45 Haplic Acrisols    C          1000.00   0.10   0.17   1.00    2.01    113.000         61.613
           11     62    4824.26 Haplic Acrisols    C          1000.00   0.10   0.17   1.00    5.48    113.000         61.613
           11     63    2275.66 Haplic Acrisols    C          1000.00   0.10   0.17   1.00   10.33    113.000         61.613
           11     64     132.69 Cumulic Anthroso   C          1000.00   0.10   0.20   1.00    5.41    133.000         72.519
           11     65     263.90 Cumulic Anthroso   C          1000.00   0.10   0.20   1.00    3.27    133.000         72.519
           11     66     187.03 Cumulic Anthroso   C          1000.00   0.10   0.20   1.00    1.92    133.000         72.519
           11     67     460.90 Haplic Acrisols    C          1000.00   0.10   0.17   1.00    5.44    113.000         61.613
           11     68     952.56 Haplic Acrisols    C          1000.00   0.10   0.17   1.00    3.25    113.000         61.613
           11     69     683.39 Haplic Acrisols    C          1000.00   0.10   0.17   1.00    1.98    113.000         61.613
           12     70     163.11 Haplic Acrisols    C          1000.00   0.10   0.17   1.00    2.01    113.000         61.613
           12     71     255.18 Haplic Acrisols    C          1000.00   0.10   0.17   1.00    3.20    113.000         61.613
           12     72      69.92 Haplic Acrisols    C          1000.00   0.10   0.17   1.00    5.20    113.000         61.613
           12     73      96.16 Water bodies       D            25.40   0.10   0.00   1.00    3.25      0.254          0.138
           12     74      42.39 Water bodies       D            25.40   0.10   0.00   1.00    5.34      0.254          0.138
           12     75      66.81 Water bodies       D            25.40   0.10   0.00   1.00    1.98      0.254          0.138
           12     76       8.24 Haplic Acrisols    C           600.00   0.10   0.17   1.00    5.44    113.000         61.613
           12     77       9.97 Haplic Acrisols    C           600.00   0.10   0.17   1.00    2.07    113.000         61.613
           12     78      18.79 Haplic Acrisols    C           600.00   0.10   0.17   1.00    3.35    113.000         61.613
           12     79      13.57 Water bodies       D            25.40   0.10   0.00   1.00    5.48      0.254          0.138
           12     80      25.05 Water bodies       D            25.40   0.10   0.00   1.00    3.30      0.254          0.138
           12     81      14.91 Water bodies       D            25.40   0.10   0.00   1.00    2.27      0.254          0.138
           13     82   16292.48 Haplic Acrisols    C          1000.00   0.10   0.17   1.00    5.53    113.000         61.613
           13     83   22386.53 Haplic Acrisols    C          1000.00   0.10   0.17   1.00    3.37    113.000         61.613
           13     84   12017.70 Haplic Acrisols    C          1000.00   0.10   0.17   1.00    2.01    113.000         61.613
           13     85    9580.43 Haplic Acrisols    C          1000.00   0.10   0.17   1.00   10.75    113.000         61.613
           14     86   13796.71 Haplic Acrisols    C          1000.00   0.10   0.17   1.00    5.48    113.000         61.613
           14     87   13985.61 Haplic Acrisols    C          1000.00   0.10   0.17   1.00    1.98    113.000         61.613
           14     88   22314.26 Haplic Acrisols    C          1000.00   0.10   0.17   1.00    3.32    113.000         61.613
           14     89    7132.16 Haplic Acrisols    C          1000.00   0.10   0.17   1.00   10.59    113.000         61.613
           14     90     958.15 Cumulic Anthroso   C          1000.00   0.10   0.20   1.00    1.82    133.000         72.519
           14     91     935.16 Cumulic Anthroso   C          1000.00   0.10   0.20   1.00    3.18    133.000         72.519
           14     92     356.18 Cumulic Anthroso   C          1000.00   0.10   0.20   1.00    5.34    133.000         72.519
           14     93    2486.39 Haplic Acrisols    C          1000.00   0.10   0.17   1.00    3.23    113.000         61.613
           14     94    1183.48 Haplic Acrisols    C          1000.00   0.10   0.17   1.00    5.46    113.000         61.613
           14     95    2201.08 Haplic Acrisols    C          1000.00   0.10   0.17   1.00    1.85    113.000         61.613
           15     96      84.11 Haplic Acrisols    C          1000.00   0.10   0.17   1.00    1.56    113.000         61.613
           15     97     115.25 Haplic Acrisols    C          1000.00   0.10   0.17   1.00   10.99    113.000         61.613
           15     98     143.37 Haplic Acrisols    C          1000.00   0.10   0.17   1.00    5.56    113.000         61.613
           15     99     145.73 Haplic Acrisols    C          1000.00   0.10   0.17   1.00    3.45    113.000         61.613
           15    100      88.56 Water bodies       D            25.40   0.10   0.00   1.00   11.90      0.254          0.138
           15    101      77.57 Water bodies       D            25.40   0.10   0.00   1.00    5.63      0.254          0.138
           15    102      99.42 Water bodies       D            25.40   0.10   0.00   1.00    3.40      0.254          0.138
           15    103     170.58 Water bodies       D            25.40   0.10   0.00   1.00    0.77      0.254          0.138
           15    104      21.32 Haplic Acrisols    C           600.00   0.10   0.17   1.00    0.80    113.000         61.613
           15    105      28.12 Haplic Acrisols    C           600.00   0.10   0.17   1.00   11.10    113.000         61.613
           15    106      12.30 Haplic Acrisols    C           600.00   0.10   0.17   1.00    5.82    113.000         61.613
           15    107      13.34 Haplic Acrisols    C           600.00   0.10   0.17   1.00    3.27    113.000         61.613
           15    108      37.09 Water bodies       D            25.40   0.10   0.00   1.00    3.23      0.254          0.138
           15    109     254.75 Water bodies       D            25.40   0.10   0.00   1.00    0.21      0.254          0.138

         HRU Input Summary Table 3:
          Sub   HRU   Area(ha) Urban Irrig DrainTiles Pothole Pstcide Biomix Septic
            1      1    2936.91                                          0.20 x
            1      2    9136.37                                          0.20 x
            1      3    4615.46                                          0.20 x
            1      4    6168.53                                          0.20 x
            1      5     998.96                                          0.20 x
            1      6     543.53                                          0.20 x
            1      7     300.99                                          0.20 x
            1      8     618.26                                          0.20 x
            1      9     506.19                                          0.20 x
            2     10   15106.90                                          0.20 x
            2     11   26046.72                                          0.20 x
            2     12    6497.56                                          0.20 x
            2     13   14911.01                                          0.20 x
            3     14    5733.94                                          0.20 x
            3     15    3736.67                                          0.20 x
            3     16    6070.24                                          0.20 x
            3     17    6948.76                                          0.20 x
            3     18    2310.77                                          0.20 x
            3     19    2552.55                                          0.20 x
            3     20    1969.84                                          0.20 x
            4     21    6715.41                                          0.20 x
            4     22    4390.35                                          0.20 x
            4     23    3587.36                                          0.20 x
            4     24    2436.11                                          0.20 x
            4     25     478.54                                          0.20 x
            4     26    1035.12                                          0.20 x
            4     27     742.59                                          0.20 x
            4     28     897.68                                          0.20 x
            5     29    5183.31                                          0.20 x
            5     30    8655.30                                          0.20 x
            5     31   11530.74                                          0.20 x
            5     32    5654.63                                          0.20 x
            6     33   13953.87                                          0.20 x
            6     34    8185.94                                          0.20 x
            6     35    4157.37                                          0.20 x
            6     36    9729.33                                          0.20 x
            6     37    1111.23                                          0.20 x
            6     38     602.23                                          0.20 x
            6     39     567.39                                          0.20 x
            6     40    1413.28                                          0.20 x
            6     41    1340.27                                          0.20 x
            7     42    1441.40                                          0.20 x
            7     43    1737.81                                          0.20 x
            7     44     444.12                                          0.20 x
            7     45    4007.95                                          0.20 x
            7     46    8387.67                                          0.20 x
            7     47    6047.19                                          0.20 x
            8     48    9186.67                                          0.20 x
            8     49   19220.42                                          0.20 x
            8     50   16396.89                                          0.20 x
            8     51   29546.23                                          0.20 x
            9     52    9102.46                                          0.20 x
            9     53   12599.26                                          0.20 x
            9     54    4526.39                                          0.20 x
            9     55    6014.00                                          0.20 x
           10     56    7904.95                                          0.20 x
           10     57    3764.11                                          0.20 x
           10     58    8041.44                                          0.20 x
           10     59   13707.12                                          0.20 x
           11     60    7660.41                                          0.20 x
           11     61    4256.45                                          0.20 x
           11     62    4824.26                                          0.20 x
           11     63    2275.66                                          0.20 x
           11     64     132.69                                          0.20 x
           11     65     263.90                                          0.20 x
           11     66     187.03                                          0.20 x
           11     67     460.90                                          0.20 x
           11     68     952.56                                          0.20 x
           11     69     683.39                                          0.20 x
           12     70     163.11                                          0.20 x
           12     71     255.18                                          0.20 x
           12     72      69.92                                          0.20 x
           12     73      96.16                                          0.20 x
           12     74      42.39                                          0.20 x
           12     75      66.81                                          0.20 x
           12     76       8.24                                          0.20 x
           12     77       9.97                                          0.20 x
           12     78      18.79                                          0.20 x
           12     79      13.57                                          0.20 x
           12     80      25.05                                          0.20 x
           12     81      14.91                                          0.20 x
           13     82   16292.48                                          0.20 x
           13     83   22386.53                                          0.20 x
           13     84   12017.70                                          0.20 x
           13     85    9580.43                                          0.20 x
           14     86   13796.71                                          0.20 x
           14     87   13985.61                                          0.20 x
           14     88   22314.26                                          0.20 x
           14     89    7132.16                                          0.20 x
           14     90     958.15                                          0.20 x
           14     91     935.16                                          0.20 x
           14     92     356.18                                          0.20 x
           14     93    2486.39                                          0.20 x
           14     94    1183.48                                          0.20 x
           14     95    2201.08                                          0.20 x
           15     96      84.11                                          0.20 x
           15     97     115.25                                          0.20 x
           15     98     143.37                                          0.20 x
           15     99     145.73                                          0.20 x
           15    100      88.56                                          0.20 x
           15    101      77.57                                          0.20 x
           15    102      99.42                                          0.20 x
           15    103     170.58                                          0.20 x
           15    104      21.32                                          0.20 x
           15    105      28.12                                          0.20 x
           15    106      12.30                                          0.20 x
           15    107      13.34                                          0.20 x
           15    108      37.09                                          0.20 x
           15    109     254.75                                          0.20 x

         HRU Input Summary Table 4 (Groundwater):
          Sub   HRU   Area(ha) GWdelay(days), GWalpha(days) GWQmin(mm) GWrevap Revapmin(mm) Deepfr NO3(ppm) SolP(ppm)
            1      1    2936.91        31.000         0.048   1000.000   0.020      750.000  0.050    0.000     0.000
            1      2    9136.37        31.000         0.048   1000.000   0.020      750.000  0.050    0.000     0.000
            1      3    4615.46        31.000         0.048   1000.000   0.020      750.000  0.050    0.000     0.000
            1      4    6168.53        31.000         0.048   1000.000   0.020      750.000  0.050    0.000     0.000
            1      5     998.96        31.000         0.048   1000.000   0.020      750.000  0.050    0.000     0.000
            1      6     543.53        31.000         0.048   1000.000   0.020      750.000  0.050    0.000     0.000
            1      7     300.99        31.000         0.048   1000.000   0.020      750.000  0.050    0.000     0.000
            1      8     618.26        31.000         0.048   1000.000   0.020      750.000  0.050    0.000     0.000
            1      9     506.19        31.000         0.048   1000.000   0.020      750.000  0.050    0.000     0.000
            2     10   15106.90        31.000         0.048   1000.000   0.020      750.000  0.050    0.000     0.000
            2     11   26046.72        31.000         0.048   1000.000   0.020      750.000  0.050    0.000     0.000
            2     12    6497.56        31.000         0.048   1000.000   0.020      750.000  0.050    0.000     0.000
            2     13   14911.01        31.000         0.048   1000.000   0.020      750.000  0.050    0.000     0.000
            3     14    5733.94        31.000         0.048   1000.000   0.020      750.000  0.050    0.000     0.000
            3     15    3736.67        31.000         0.048   1000.000   0.020      750.000  0.050    0.000     0.000
            3     16    6070.24        31.000         0.048   1000.000   0.020      750.000  0.050    0.000     0.000
            3     17    6948.76        31.000         0.048   1000.000   0.020      750.000  0.050    0.000     0.000
            3     18    2310.77        31.000         0.048   1000.000   0.020      750.000  0.050    0.000     0.000
            3     19    2552.55        31.000         0.048   1000.000   0.020      750.000  0.050    0.000     0.000
            3     20    1969.84        31.000         0.048   1000.000   0.020      750.000  0.050    0.000     0.000
            4     21    6715.41        31.000         0.048   1000.000   0.020      750.000  0.050    0.000     0.000
            4     22    4390.35        31.000         0.048   1000.000   0.020      750.000  0.050    0.000     0.000
            4     23    3587.36        31.000         0.048   1000.000   0.020      750.000  0.050    0.000     0.000
            4     24    2436.11        31.000         0.048   1000.000   0.020      750.000  0.050    0.000     0.000
            4     25     478.54        31.000         0.048   1000.000   0.020      750.000  0.050    0.000     0.000
            4     26    1035.12        31.000         0.048   1000.000   0.020      750.000  0.050    0.000     0.000
            4     27     742.59        31.000         0.048   1000.000   0.020      750.000  0.050    0.000     0.000
            4     28     897.68        31.000         0.048   1000.000   0.020      750.000  0.050    0.000     0.000
            5     29    5183.31        31.000         0.048   1000.000   0.020      750.000  0.050    0.000     0.000
            5     30    8655.30        31.000         0.048   1000.000   0.020      750.000  0.050    0.000     0.000
            5     31   11530.74        31.000         0.048   1000.000   0.020      750.000  0.050    0.000     0.000
            5     32    5654.63        31.000         0.048   1000.000   0.020      750.000  0.050    0.000     0.000
            6     33   13953.87        31.000         0.048   1000.000   0.020      750.000  0.050    0.000     0.000
            6     34    8185.94        31.000         0.048   1000.000   0.020      750.000  0.050    0.000     0.000
            6     35    4157.37        31.000         0.048   1000.000   0.020      750.000  0.050    0.000     0.000
            6     36    9729.33        31.000         0.048   1000.000   0.020      750.000  0.050    0.000     0.000
            6     37    1111.23        31.000         0.048   1000.000   0.020      750.000  0.050    0.000     0.000
            6     38     602.23        31.000         0.048   1000.000   0.020      750.000  0.050    0.000     0.000
            6     39     567.39        31.000         0.048   1000.000   0.020      750.000  0.050    0.000     0.000
            6     40    1413.28        31.000         0.048   1000.000   0.020      750.000  0.050    0.000     0.000
            6     41    1340.27        31.000         0.048   1000.000   0.020      750.000  0.050    0.000     0.000
            7     42    1441.40        31.000         0.048   1000.000   0.020      750.000  0.050    0.000     0.000
            7     43    1737.81        31.000         0.048   1000.000   0.020      750.000  0.050    0.000     0.000
            7     44     444.12        31.000         0.048   1000.000   0.020      750.000  0.050    0.000     0.000
            7     45    4007.95        31.000         0.048   1000.000   0.020      750.000  0.050    0.000     0.000
            7     46    8387.67        31.000         0.048   1000.000   0.020      750.000  0.050    0.000     0.000
            7     47    6047.19        31.000         0.048   1000.000   0.020      750.000  0.050    0.000     0.000
            8     48    9186.67        31.000         0.048   1000.000   0.020      750.000  0.050    0.000     0.000
            8     49   19220.42        31.000         0.048   1000.000   0.020      750.000  0.050    0.000     0.000
            8     50   16396.89        31.000         0.048   1000.000   0.020      750.000  0.050    0.000     0.000
            8     51   29546.23        31.000         0.048   1000.000   0.020      750.000  0.050    0.000     0.000
            9     52    9102.46        31.000         0.048   1000.000   0.020      750.000  0.050    0.000     0.000
            9     53   12599.26        31.000         0.048   1000.000   0.020      750.000  0.050    0.000     0.000
            9     54    4526.39        31.000         0.048   1000.000   0.020      750.000  0.050    0.000     0.000
            9     55    6014.00        31.000         0.048   1000.000   0.020      750.000  0.050    0.000     0.000
           10     56    7904.95        31.000         0.048   1000.000   0.020      750.000  0.050    0.000     0.000
           10     57    3764.11        31.000         0.048   1000.000   0.020      750.000  0.050    0.000     0.000
           10     58    8041.44        31.000         0.048   1000.000   0.020      750.000  0.050    0.000     0.000
           10     59   13707.12        31.000         0.048   1000.000   0.020      750.000  0.050    0.000     0.000
           11     60    7660.41        31.000         0.048   1000.000   0.020      750.000  0.050    0.000     0.000
           11     61    4256.45        31.000         0.048   1000.000   0.020      750.000  0.050    0.000     0.000
           11     62    4824.26        31.000         0.048   1000.000   0.020      750.000  0.050    0.000     0.000
           11     63    2275.66        31.000         0.048   1000.000   0.020      750.000  0.050    0.000     0.000
           11     64     132.69        31.000         0.048   1000.000   0.020      750.000  0.050    0.000     0.000
           11     65     263.90        31.000         0.048   1000.000   0.020      750.000  0.050    0.000     0.000
           11     66     187.03        31.000         0.048   1000.000   0.020      750.000  0.050    0.000     0.000
           11     67     460.90        31.000         0.048   1000.000   0.020      750.000  0.050    0.000     0.000
           11     68     952.56        31.000         0.048   1000.000   0.020      750.000  0.050    0.000     0.000
           11     69     683.39        31.000         0.048   1000.000   0.020      750.000  0.050    0.000     0.000
           12     70     163.11        31.000         0.048   1000.000   0.020      750.000  0.050    0.000     0.000
           12     71     255.18        31.000         0.048   1000.000   0.020      750.000  0.050    0.000     0.000
           12     72      69.92        31.000         0.048   1000.000   0.020      750.000  0.050    0.000     0.000
           12     73      96.16        31.000         0.048   1000.000   0.020      750.000  0.050    0.000     0.000
           12     74      42.39        31.000         0.048   1000.000   0.020      750.000  0.050    0.000     0.000
           12     75      66.81        31.000         0.048   1000.000   0.020      750.000  0.050    0.000     0.000
           12     76       8.24        31.000         0.048   1000.000   0.020      750.000  0.050    0.000     0.000
           12     77       9.97        31.000         0.048   1000.000   0.020      750.000  0.050    0.000     0.000
           12     78      18.79        31.000         0.048   1000.000   0.020      750.000  0.050    0.000     0.000
           12     79      13.57        31.000         0.048   1000.000   0.020      750.000  0.050    0.000     0.000
           12     80      25.05        31.000         0.048   1000.000   0.020      750.000  0.050    0.000     0.000
           12     81      14.91        31.000         0.048   1000.000   0.020      750.000  0.050    0.000     0.000
           13     82   16292.48        31.000         0.048   1000.000   0.020      750.000  0.050    0.000     0.000
           13     83   22386.53        31.000         0.048   1000.000   0.020      750.000  0.050    0.000     0.000
           13     84   12017.70        31.000         0.048   1000.000   0.020      750.000  0.050    0.000     0.000
           13     85    9580.43        31.000         0.048   1000.000   0.020      750.000  0.050    0.000     0.000
           14     86   13796.71        31.000         0.048   1000.000   0.020      750.000  0.050    0.000     0.000
           14     87   13985.61        31.000         0.048   1000.000   0.020      750.000  0.050    0.000     0.000
           14     88   22314.26        31.000         0.048   1000.000   0.020      750.000  0.050    0.000     0.000
           14     89    7132.16        31.000         0.048   1000.000   0.020      750.000  0.050    0.000     0.000
           14     90     958.15        31.000         0.048   1000.000   0.020      750.000  0.050    0.000     0.000
           14     91     935.16        31.000         0.048   1000.000   0.020      750.000  0.050    0.000     0.000
           14     92     356.18        31.000         0.048   1000.000   0.020      750.000  0.050    0.000     0.000
           14     93    2486.39        31.000         0.048   1000.000   0.020      750.000  0.050    0.000     0.000
           14     94    1183.48        31.000         0.048   1000.000   0.020      750.000  0.050    0.000     0.000
           14     95    2201.08        31.000         0.048   1000.000   0.020      750.000  0.050    0.000     0.000
           15     96      84.11        31.000         0.048   1000.000   0.020      750.000  0.050    0.000     0.000
           15     97     115.25        31.000         0.048   1000.000   0.020      750.000  0.050    0.000     0.000
           15     98     143.37        31.000         0.048   1000.000   0.020      750.000  0.050    0.000     0.000
           15     99     145.73        31.000         0.048   1000.000   0.020      750.000  0.050    0.000     0.000
           15    100      88.56        31.000         0.048   1000.000   0.020      750.000  0.050    0.000     0.000
           15    101      77.57        31.000         0.048   1000.000   0.020      750.000  0.050    0.000     0.000
           15    102      99.42        31.000         0.048   1000.000   0.020      750.000  0.050    0.000     0.000
           15    103     170.58        31.000         0.048   1000.000   0.020      750.000  0.050    0.000     0.000
           15    104      21.32        31.000         0.048   1000.000   0.020      750.000  0.050    0.000     0.000
           15    105      28.12        31.000         0.048   1000.000   0.020      750.000  0.050    0.000     0.000
           15    106      12.30        31.000         0.048   1000.000   0.020      750.000  0.050    0.000     0.000
           15    107      13.34        31.000         0.048   1000.000   0.020      750.000  0.050    0.000     0.000
           15    108      37.09        31.000         0.048   1000.000   0.020      750.000  0.050    0.000     0.000
           15    109     254.75        31.000         0.048   1000.000   0.020      750.000  0.050    0.000     0.000

         Tributary/Main Channel Characteristics
              |--------------Tributary--------------------|---------------------Main---------------------------|
          Sub  Length(km) Slope Width(m) Cond(mm/hr)     N Length(km) Slope Width(m) Depth(m) Cond(mm/hr)     N
            1       39.37 0.030    35.74      0.0000 0.014       4.77 0.003    35.74     1.19      0.0000 0.014
            2       60.16 0.012    61.68      0.0000 0.014      27.40 0.002    61.68     1.71      0.0000 0.014
            3       47.81 0.024    39.38      0.0000 0.014      18.01 0.003    39.38     1.27      0.0000 0.014
            4       30.31 0.029    30.92      0.0000 0.014       4.51 0.003    30.92     1.08      0.0000 0.014
            5       51.80 0.019    39.90      0.0000 0.014      20.83 0.003    39.90     1.28      0.0000 0.014
            6       35.84 0.020    47.78      0.0000 0.014      25.53 0.001    95.05     2.29      0.0000 0.014
            7       36.31 0.009    33.77      0.0000 0.014       8.98 0.001    33.77     1.15      0.0000 0.014
            8       60.57 0.011    68.10      0.0000 0.014      41.53 0.001    92.62     2.25      0.0000 0.014
            9       48.52 0.014    40.83      0.0000 0.014      17.18 0.004    40.83     1.30      0.0000 0.014
           10       38.55 0.017    42.14      0.0000 0.014      22.16 0.002   120.89     2.68      0.0000 0.014
           11       33.90 0.023    32.19      0.0000 0.014       4.78 0.002    32.19     1.11      0.0000 0.014
           12        6.22 0.026     4.39      0.0000 0.014       4.09 0.001   132.68     2.85      0.0000 0.014
           13       62.94 0.018    60.37      0.0000 0.014      49.87 0.001   126.27     2.76      0.0000 0.014
           14       60.41 0.019    62.96      0.0000 0.014      35.83 0.000   161.18     3.25      0.0000 0.014
           15        8.44 0.027     6.24      0.0000 0.014       3.30 0.007   219.26     3.99      0.0000 0.014
