1
    SWAT May 26   VER 2020/Rev 681                                                                       0/ 0/   0      0: 0: 0

    General Input/Output section (file.cio):                                        
    2024/8/23 0:00:00 ARCGIS-SWAT interface AV                                      
                                                                                    
         Number of years in run:   10
         Area of watershed:     5215.535 km2
1
    SWAT May 26   VER 2020/Rev 681                                                  

    General Input/Output section (file.cio):                                        
    2024/8/23 0:00:00 ARCGIS-SWAT interface AV                                      
                                                                                    
Annual Summary for Watershed in year    1 of simulation

UNIT                                    PERCO    TILE                           WATER     SED     NO3     NO3     NO3     NO3        N       P       P
TIME     PREC    SURQ    LATQ     GWQ    LATE       Q     SW       ET     PET   YIELD   YIELD    SURQ    LATQ    PERC    CROP  ORGANIC SOLUBLE ORGANIC TILENO3
         (mm)    (mm)    (mm)    (mm)    (mm)    (mm)    (mm)    (mm)    (mm)    (mm)   (t/ha)  ------------------(kg nutrient/ha)-------------------- (kg/ha)
    1    0.09    0.00    0.00    0.00    0.00    0.00   61.70    0.23    0.57    0.00    0.00    0.00    0.00    0.00    0.00     0.00    0.00    0.00    0.00
    2    0.02    0.00    0.00    0.00    0.00    0.00   60.56    1.23    3.92    0.00    0.00    0.00    0.00    0.00    0.00     0.00    0.00    0.00    0.00
    3    0.36    0.00    0.00    0.00    0.00    0.00   60.86    0.06    0.16    0.00    0.00    0.00    0.00    0.00    0.00     0.00    0.00    0.00    0.00
    4    4.51    0.00    0.00    0.00    0.00    0.00   64.94    0.28    0.39    0.00    0.00    0.00    0.00    0.00    0.00     0.00    0.00    0.00    0.00
    5    9.69    0.04    0.00    0.00    0.00    0.00   73.88    0.29    0.33    0.04    0.02    0.00    0.00    0.00    0.00     0.03    0.00    0.00    0.00
    6   11.94    0.35    0.01    0.00    0.00    0.00   84.76    0.05    0.05    0.31    0.37    0.00    0.00    0.00    0.00     0.42    0.00    0.05    0.00
    7    0.00    0.00    0.01    0.00    0.00    0.00   82.60    2.19    2.35    0.05    0.00    0.00    0.00    0.00    0.00     0.05    0.00    0.01    0.00
    8    0.00    0.00    0.01    0.00    0.00    0.00   81.30    1.36    2.23    0.01    0.00    0.00    0.00    0.00    0.00     0.01    0.00    0.00    0.00
    9    0.07    0.00    0.01    0.00    0.00    0.00   80.85    0.59    1.05    0.01    0.00    0.00    0.00    0.00    0.00     0.00    0.00    0.00    0.00
   10    0.29    0.00    0.00    0.00    0.00    0.00   80.44    0.74    1.21    0.01    0.00    0.00    0.00    0.00    0.00     0.00    0.00    0.00    0.00
   11    0.00    0.00    0.00    0.00    0.00    0.00   79.29    1.25    2.18    0.00    0.00    0.00    0.00    0.00    0.00     0.00    0.00    0.00    0.00
   12    3.21    0.00    0.00    0.00    0.00    0.00   82.20    0.15    0.16    0.01    0.00    0.00    0.00    0.00    0.00     0.00    0.00    0.00    0.00
   13    2.76    0.00    0.01    0.00    0.00    0.00   84.38    0.47    0.49    0.01    0.00    0.00    0.00    0.00    0.00     0.00    0.00    0.00    0.00
   14    5.99    0.05    0.01    0.00    0.00    0.00   89.40    0.64    0.66    0.05    0.06    0.00    0.00    0.00    0.00     0.06    0.00    0.01    0.00
   15   17.01    2.76    0.01    0.00    0.00    0.00  102.10    0.67    0.70    2.33    3.34    0.00    0.00    0.00    0.00     3.59    0.00    0.44    0.00
   16    5.07    0.02    0.01    0.00    0.00    0.00  105.91    0.87    0.87    0.38    0.00    0.00    0.00    0.00    0.00     0.46    0.00    0.06    0.00
   17    0.15    0.00    0.01    0.00    0.00    0.00  105.60    0.45    0.56    0.09    0.00    0.00    0.00    0.00    0.00     0.09    0.00    0.01    0.00
   18    1.13    0.00    0.01    0.00    0.00    0.00  106.20    0.49    0.51    0.03    0.00    0.00    0.00    0.00    0.00     0.02    0.00    0.00    0.00
   19    1.14    0.00    0.01    0.00    0.00    0.00  107.02    0.27    0.28    0.02    0.00    0.00    0.00    0.00    0.00     0.01    0.00    0.00    0.00
   20    2.33    0.00    0.01    0.00    0.03    0.00  108.85    0.35    0.36    0.02    0.00    0.00    0.00    0.00    0.00     0.00    0.00    0.00    0.00
   21    3.38    0.00    0.02    0.00    0.10    0.00  110.76    1.24    1.27    0.02    0.00    0.00    0.00    0.01    0.00     0.00    0.00    0.00    0.00
   22   16.58    4.17    0.02    0.00    0.47    0.00  120.68    1.17    1.19    3.51    6.71    0.00    0.00    0.04    0.00     6.30    0.00    0.77    0.00
   23    4.11    0.01    0.02    0.00    0.77    0.00  123.47    0.26    0.28    0.56    0.00    0.00    0.00    0.06    0.00     0.82    0.00    0.10    0.00
   24    9.63    1.44    0.02    0.00    1.28    0.00  129.53    0.24    0.25    1.34    2.22    0.00    0.00    0.10    0.00     2.08    0.00    0.25    0.00
   25    0.97    0.00    0.02    0.00    1.45    0.00  127.65    1.26    1.27    0.24    0.00    0.00    0.00    0.11    0.00     0.29    0.00    0.04    0.00
   26    2.80    0.00    0.03    0.01    1.55    0.00  127.99    0.68    0.68    0.08    0.00    0.00    0.00    0.11    0.00     0.06    0.00    0.01    0.00
   27    1.51    0.00    0.03    0.01    1.57    0.00  127.76    0.02    0.03    0.05    0.00    0.00    0.00    0.11    0.00     0.02    0.00    0.00    0.00
   28    0.25    0.00    0.03    0.02    1.51    0.00  126.29    0.15    0.16    0.05    0.00    0.00    0.00    0.10    0.00     0.00    0.00    0.00    0.00
   29    0.13    0.00    0.03    0.03    1.41    0.00  124.37    0.62    0.65    0.06    0.00    0.00    0.00    0.09    0.00     0.00    0.00    0.00    0.00
   30    0.10    0.00    0.03    0.05    1.29    0.00  122.31    0.86    0.97    0.07    0.00    0.00    0.00    0.08    0.00     0.00    0.00    0.00    0.00
   31    0.15    0.00    0.02    0.06    1.16    0.00  120.85    0.46    0.60    0.09    0.00    0.00    0.00    0.07    0.00     0.00    0.00    0.00    0.00
    1  105.36    8.85    0.40    0.19   12.60    0.00  120.85   19.61   26.39    9.43   12.72    0.00    0.00    0.89    0.00    14.33    0.00    1.76    0.00
   32    1.05    0.00    0.02    0.07    1.05    0.00  120.05    0.79    0.83    0.10    0.00    0.00    0.00    0.06    0.00     0.00    0.00    0.00    0.00
   33    2.76    0.00    0.03    0.09    1.03    0.00  120.54    1.11    1.13    0.12    0.00    0.00    0.00    0.06    0.00     0.00    0.00    0.00    0.00
   34    3.77    0.00    0.03    0.10    1.08    0.00  122.32    0.68    0.69    0.13    0.00    0.00    0.00    0.06    0.00     0.00    0.00    0.00    0.00
   35    1.52    0.00    0.03    0.12    1.10    0.00  122.47    0.16    0.17    0.15    0.00    0.00    0.00    0.06    0.00     0.00    0.00    0.00    0.00
   36    1.09    0.00    0.03    0.13    1.09    0.00  122.03    0.36    0.37    0.16    0.00    0.00    0.00    0.06    0.00     0.00    0.00    0.00    0.00
   37   14.19    3.83    0.03    0.15    1.51    0.00  130.02    0.11    0.11    3.38    7.05    0.00    0.00    0.08    0.00     5.53    0.00    0.68    0.00
   38    8.35    1.21    0.03    0.17    1.86    0.00  133.29    1.45    1.48    1.71    0.47    0.00    0.00    0.09    0.00     2.31    0.00    0.28    0.00
   39    0.49    0.00    0.03    0.18    1.89    0.00  131.15    0.64    0.74    0.47    0.00    0.00    0.00    0.09    0.00     0.35    0.00    0.04    0.00
   40    1.18    0.00    0.03    0.20    1.85    0.00  129.86    0.53    0.55    0.29    0.00    0.00    0.00    0.09    0.00     0.08    0.00    0.01    0.00
   41    2.48    0.00    0.03    0.22    1.84    0.00  129.99    0.33    0.34    0.27    0.00    0.00    0.00    0.09    0.00     0.02    0.00    0.00    0.00
   42    1.26    0.00    0.04    0.24    1.79    0.00  128.28    1.11    1.15    0.28    0.00    0.00    0.00    0.08    0.00     0.00    0.00    0.00    0.00
   43    2.38    0.00    0.04    0.26    1.74    0.00  127.53    1.33    1.39    0.30    0.00    0.00    0.00    0.08    0.00     0.00    0.00    0.00    0.00
   44    0.87    0.00    0.04    0.28    1.61    0.00  125.75    1.03    1.07    0.32    0.00    0.00    0.00    0.07    0.00     0.00    0.00    0.00    0.00
   45    0.39    0.00    0.03    0.31    1.46    0.00  123.66    1.03    1.21    0.35    0.00    0.00    0.00    0.06    0.00     0.00    0.00    0.00    0.00
   46    2.02    0.00    0.03    0.33    1.36    0.00  123.55    0.69    0.71    0.37    0.00    0.00    0.00    0.06    0.00     0.00    0.00    0.00    0.00
   47    1.75    0.00    0.03    0.35    1.29    0.00  123.02    0.93    0.96    0.39    0.00    0.00    0.00    0.05    0.00     0.00    0.00    0.00    0.00
   48    0.00    0.00    0.03    0.37    1.18    0.00  120.28    1.59    2.07    0.41    0.00    0.00    0.00    0.05    0.00     0.00    0.00    0.00    0.00
   49    0.00    0.00    0.03    0.39    1.05    0.00  117.71    1.55    2.44    0.43    0.00    0.00    0.00    0.04    0.00     0.00    0.00    0.00    0.00
   50    0.00    0.00    0.03    0.41    0.93    0.00  115.45    1.37    2.46    0.45    0.00    0.00    0.00    0.04    0.00     0.00    0.00    0.00    0.00
   51    0.84    0.00    0.03    0.42    0.83    0.00  115.31    0.12    0.16    0.46    0.00    0.00    0.00    0.03    0.00     0.00    0.00    0.00    0.00
   52    0.97    0.00    0.03    0.44    0.74    0.00  113.58    1.92    2.03    0.48    0.00    0.00    0.00    0.03    0.00     0.00    0.00    0.00    0.00
   53    3.90    0.00    0.03    0.46    0.66    0.00  115.50    1.19    1.23    0.50    0.00    0.00    0.00    0.02    0.00     0.00    0.00    0.00    0.00
   54    4.24    0.04    0.03    0.47    0.70    0.00  118.30    0.53    0.54    0.55    0.03    0.00    0.00    0.02    0.00     0.03    0.00    0.00    0.00
   55   14.29    3.56    0.04    0.49    1.17    0.00  125.18    2.00    2.05    3.53    5.50    0.00    0.00    0.04    0.00     3.96    0.00    0.49    0.00
   56   12.29    2.81    0.04    0.50    1.60    0.00  131.46    0.88    0.90    3.37    1.41    0.00    0.00    0.06    0.00     3.57    0.00    0.44    0.00
   57    2.80    0.01    0.04    0.52    1.76    0.00  131.46    0.79    0.81    1.02    0.00    0.00    0.00    0.06    0.00     0.53    0.00    0.06    0.00
   58   18.60    7.42    0.05    0.54    2.29    0.00  138.94    0.45    0.47    6.92   15.94    0.00    0.00    0.08    0.00     9.27    0.00    1.14    0.00
   59   34.96   21.20    0.06    0.56    2.94    0.00  147.19    0.75    0.78   19.42   39.70    0.00    0.00    0.10    0.00    25.59    0.00    3.13    0.00
   60   17.64    7.85    0.06    0.58    3.44    0.00  151.18    1.31    1.34   10.08    0.39    0.00    0.00    0.12    0.00     7.74    0.00    0.95    0.00
    2  156.08   47.94    1.03    9.35   42.84    0.00  151.18   26.72   30.21   56.44   70.50    0.00    0.01    1.81    0.00    58.98    0.01    7.22    0.00
   61    0.32    0.00    0.06    0.60    3.44    0.00  146.99    0.93    1.15    2.24    0.00    0.00    0.00    0.11    0.00     1.46    0.00    0.18    0.00
   62    0.86    0.00    0.06    0.63    3.29    0.00  142.45    2.04    2.26    1.04    0.00    0.00    0.00    0.10    0.00     0.33    0.00    0.04    0.00
   63    0.70    0.00    0.06    0.65    3.04    0.00  139.21    0.86    1.02    0.81    0.00    0.00    0.00    0.09    0.00     0.08    0.00    0.01    0.00
   64   13.60    4.53    0.06    0.68    3.17    0.00  142.70    1.73    1.78    4.59    5.98    0.00    0.00    0.09    0.00     1.27    0.00    0.15    0.00
   65   28.17   16.16    0.07    0.71    3.52    0.00  147.23    2.68    3.04   14.93   25.89    0.00    0.00    0.10    0.00     5.75    0.00    0.70    0.00
   66   17.75    8.10    0.08    0.75    3.75    0.00  151.16    1.09    1.13    9.78    1.33    0.00    0.00    0.10    0.00     3.06    0.00    0.37    0.00
   67   21.01   10.89    0.08    0.78    4.07    0.00  155.20    0.89    0.93   11.51   18.47    0.00    0.00    0.10    0.00     2.92    0.00    0.36    0.00
   68    9.85    2.93    0.08    0.82    4.23    0.00  156.58    0.61    0.63    5.06    0.09    0.00    0.00    0.10    0.00     1.14    0.00    0.14    0.00
   69    5.73    0.82    0.09    0.86    4.27    0.00  155.91    0.84    0.87    2.38    1.50    0.00    0.00    0.10    0.00     0.41    0.00    0.05    0.00
   70    1.73    0.01    0.08    0.90    4.12    0.00  152.45    0.84    0.88    1.28    0.00    0.00    0.00    0.10    0.00     0.09    0.00    0.01    0.00
   71    2.41    0.04    0.08    0.94    3.93    0.00  149.19    1.49    1.55    1.14    0.06    0.00    0.00    0.09    0.00     0.03    0.00    0.00    0.00
   72    2.12    0.01    0.08    0.98    3.69    0.00  146.48    0.95    0.99    1.11    0.00    0.00    0.00    0.08    0.00     0.01    0.00    0.00    0.00
   73    3.88    0.14    0.08    1.02    3.53    0.00  145.16    1.26    1.31    1.24    0.15    0.00    0.00    0.07    0.00     0.02    0.00    0.00    0.00
   74    4.01    0.15    0.08    1.06    3.41    0.00  143.38    2.01    2.06    1.31    0.07    0.00    0.00    0.07    0.00     0.02    0.00    0.00    0.00
   75    0.35    0.00    0.08    1.10    3.13    0.00  139.30    1.29    1.79    1.23    0.00    0.00    0.00    0.06    0.00     0.00    0.00    0.00    0.00
   76    1.02    0.00    0.08    1.15    2.83    0.00  134.73    2.75    3.22    1.25    0.00    0.00    0.00    0.05    0.00     0.00    0.00    0.00    0.00
   77    0.24    0.00    0.08    1.19    2.52    0.00  129.86    2.59    4.17    1.29    0.00    0.00    0.00    0.05    0.00     0.00    0.00    0.00    0.00
   78    1.28    0.00    0.08    1.22    2.25    0.00  127.46    1.35    1.53    1.33    0.00    0.00    0.00    0.04    0.00     0.00    0.00    0.00    0.00
   79    1.08    0.00    0.08    1.26    2.01    0.00  124.91    1.62    1.78    1.36    0.00    0.00    0.00    0.03    0.00     0.00    0.00    0.00    0.00
   80    0.48    0.00    0.08    1.29    1.80    0.00  123.34    0.19    0.28    1.40    0.00    0.00    0.00    0.03    0.00     0.00    0.00    0.00    0.00
   81    0.43    0.00    0.08    1.33    1.62    0.00  120.83    1.34    1.79    1.43    0.00    0.00    0.00    0.03    0.00     0.00    0.00    0.00    0.00
   82    0.55    0.00    0.08    1.35    1.44    0.00  119.74    0.13    0.16    1.46    0.00    0.00    0.00    0.02    0.00     0.00    0.00    0.00    0.00
   83    2.19    0.00    0.07    1.38    1.30    0.00  119.11    1.46    1.53    1.48    0.00    0.00    0.00    0.02    0.00     0.00    0.00    0.00    0.00
   84    0.66    0.00    0.07    1.41    1.16    0.00  117.62    1.01    1.19    1.51    0.00    0.00    0.00    0.02    0.03     0.00    0.00    0.00    0.00
   85    0.31    0.00    0.07    1.43    1.04    0.00  116.38    0.48    0.65    1.53    0.00    0.00    0.00    0.02    0.01     0.00    0.00    0.00    0.00
   86    0.15    0.00    0.07    1.45    0.93    0.00  115.03    0.61    0.84    1.55    0.00    0.00    0.00    0.01    0.03     0.00    0.00    0.00    0.00
   87    0.23    0.00    0.07    1.46    0.83    0.00  112.60    1.89    2.81    1.56    0.00    0.00    0.00    0.01    0.07     0.00    0.00    0.00    0.00
   88    0.12    0.00    0.07    1.48    0.74    0.00  110.96    1.08    2.31    1.58    0.00    0.00    0.00    0.01    0.11     0.00    0.00    0.00    0.00
   89    0.17    0.00    0.07    1.49    0.65    0.00  109.28    1.31    2.89    1.59    0.00    0.00    0.00    0.01    0.19     0.00    0.00    0.00    0.00
   90    0.41    0.00    0.07    1.50    0.57    0.00  108.43    0.74    1.28    1.60    0.00    0.00    0.00    0.01    0.18     0.00    0.00    0.00    0.00
   91    2.55    0.00    0.07    1.51    0.51    0.00  108.93    1.50    1.69    1.61    0.00    0.00    0.00    0.01    0.22     0.00    0.00    0.00    0.00
    3  124.37   43.77    2.34   34.37   76.77    0.00  108.93   39.59   49.52   83.16   53.53    0.00    0.01    1.75    0.85    16.58    0.01    2.03    0.00
   92    0.64    0.00    0.07    1.51    0.45    0.00  107.75    1.47    1.96    1.61    0.00    0.00    0.00    0.01    0.38     0.00    0.00    0.00    0.00
   93    0.00    0.00    0.07    1.52    0.39    0.00  104.58    2.94    6.75    1.62    0.00    0.00    0.00    0.01    0.53     0.00    0.00    0.00    0.00
   94    0.00    0.00    0.06    1.52    0.32    0.00  101.29    3.17    8.87    1.62    0.00    0.00    0.00    0.00    0.55     0.00    0.00    0.00    0.00
   95    0.06    0.00    0.06    1.52    0.25    0.00   99.68    1.58    4.87    1.61    0.00    0.00    0.00    0.00    0.41     0.00    0.00    0.00    0.00
   96    5.53    0.13    0.06    1.51    0.20    0.00  103.38    1.33    1.61    1.72    0.09    0.05    0.00    0.01    0.42     0.02    0.00    0.00    0.00
   97    2.34    0.00    0.06    1.51    0.17    0.00  104.62    0.89    1.06    1.63    0.00    0.01    0.00    0.00    0.36     0.00    0.00    0.00    0.00
   98    5.77    0.08    0.06    1.50    0.15    0.00  108.87    1.13    1.19    1.67    0.07    0.00    0.00    0.01    0.33     0.01    0.00    0.00    0.00
   99   19.57    5.99    0.07    1.50    0.58    0.00  120.21    0.79    0.82    6.63    6.87    0.01    0.00    0.02    0.28     0.65    0.00    0.08    0.00
  100   40.86   23.41    0.08    1.49    1.45    0.00  133.08    1.15    1.20   22.06   24.41    0.58    0.00    0.09    0.47     2.97    0.00    0.36    0.00
  101    0.05    0.00    0.08    1.48    1.65    0.00  127.97    3.51    5.06    4.66    0.00    0.10    0.00    0.12    0.80     0.53    0.00    0.06    0.00
  102    0.37    0.00    0.08    1.48    1.57    0.00  124.39    2.48    3.18    2.23    0.00    0.02    0.00    0.11    1.01     0.11    0.00    0.01    0.00
  103    0.96    0.00    0.07    1.47    1.41    0.00  120.42    3.65    4.64    1.74    0.00    0.00    0.00    0.09    1.54     0.03    0.00    0.00    0.00
  104   19.01    6.80    0.08    1.47    1.66    0.00  128.89    1.25    1.29    7.34    6.24    0.60    0.00    0.12    1.42     0.40    0.00    0.05    0.00
  105    3.15    0.02    0.08    1.46    1.72    0.00  127.96    2.24    2.30    2.45    0.00    0.08    0.00    0.13    2.59     0.07    0.00    0.01    0.00
  106    7.54    1.44    0.08    1.46    1.87    0.00  129.01    2.84    2.89    2.96    1.35    0.02    0.00    0.14    1.62     0.09    0.00    0.01    0.00
  107   18.62    7.06    0.09    1.46    2.23    0.00  135.67    1.78    1.83    7.75    4.26    0.01    0.00    0.17    1.97     0.37    0.00    0.04    0.00
  108   27.28   14.28    0.09    1.46    2.73    0.00  142.72    1.72    1.75   14.55    4.55    1.13    0.00    0.24    0.99     0.62    0.00    0.08    0.00
  109    5.57    0.61    0.09    1.46    2.92    0.00  142.81    1.52    1.55    4.08    0.03    0.19    0.00    0.25    2.26     0.14    0.00    0.02    0.00
  110    2.98    0.01    0.09    1.46    2.93    0.00  140.06    2.56    2.61    2.10    0.01    0.04    0.00    0.28    2.48     0.03    0.00    0.00    0.00
  111   12.73    4.06    0.09    1.47    3.08    0.00  142.78    2.10    2.15    5.15    1.09    0.13    0.00    0.27    3.66     0.11    0.00    0.01    0.00
  112    1.42    0.00    0.09    1.47    2.95    0.00  138.11    3.13    3.21    2.13    0.00    0.01    0.00    0.24    3.04     0.02    0.00    0.00    0.00
  113    0.34    0.00    0.09    1.48    2.68    0.00  134.81    0.94    1.11    1.72    0.00    0.00    0.00    0.19    3.09     0.00    0.00    0.00    0.00
  114    5.00    0.32    0.09    1.49    2.58    0.00  134.87    1.82    1.86    1.92    0.07    0.03    0.00    0.14    3.33     0.01    0.00    0.00    0.00
  115   10.19    2.25    0.09    1.50    2.68    0.00  136.62    2.99    3.03    3.57    0.20    0.01    0.00    0.13    3.67     0.02    0.00    0.00    0.00
  116   39.30   24.62    0.10    1.51    3.08    0.00  145.47    0.74    0.76   22.66    2.15    0.00    0.00    0.14    0.87     0.26    0.00    0.03    0.00
  117    0.31    0.00    0.10    1.52    3.01    0.00  141.10    1.56    1.62    4.80    0.00    0.00    0.00    0.13    0.19     0.05    0.00    0.01    0.00
  118   29.19   16.56    0.10    1.54    3.35    0.00  146.09    2.79    2.84   16.27    1.40    0.30    0.00    0.14    0.11     0.16    0.00    0.02    0.00
  119    1.33    0.00    0.10    1.55    3.21    0.00  141.98    2.10    2.14    3.92    0.00    0.05    0.00    0.13    1.97     0.03    0.00    0.00    0.00
  120    8.35    1.86    0.11    1.57    3.23    0.00  142.11    2.63    2.64    3.73    0.13    0.05    0.00    0.12    0.50     0.02    0.00    0.00    0.00
  121    1.11    0.00    0.10    1.59    2.99    0.00  136.93    3.18    3.20    2.08    0.00    0.01    0.00    0.10    0.77     0.00    0.00    0.00    0.00
    4  269.54  109.50    2.50   44.95   57.49    0.00  136.93   61.99   80.00  157.98   52.93    3.45    0.04    3.53   41.63     6.71    0.00    0.82    0.00
  122    6.20    0.71    0.10    1.60    2.83    0.00  137.55    1.68    1.72    2.43    0.02    0.00    0.00    0.09    0.24     0.01    0.00    0.00    0.00
  123   24.84   12.63    0.11    1.62    3.13    0.00  144.10    1.32    1.36   12.54    0.68    0.00    0.00    0.10    0.02     0.08    0.00    0.01    0.00
  124    7.86    1.47    0.11    1.64    3.27    0.00  143.78    3.05    3.12    4.60    0.00    0.00    0.00    0.10    0.01     0.02    0.00    0.00    0.00
  125    5.09    0.53    0.11    1.66    3.20    0.00  142.02    2.86    2.94    2.76    0.02    0.00    0.00    0.09    0.01     0.01    0.00    0.00    0.00
  126    9.92    2.38    0.11    1.68    3.25    0.00  142.05    3.76    3.83    4.03    0.06    0.00    0.00    0.09    0.01     0.01    0.00    0.00    0.00
  127    1.22    0.01    0.11    1.70    3.00    0.00  135.56    4.64    4.73    2.21    0.00    0.00    0.00    0.08    0.02     0.00    0.00    0.00    0.00
  128    1.09    0.00    0.11    1.72    2.66    0.00  130.90    3.16    3.35    1.95    0.00    0.00    0.00    0.07    0.02     0.00    0.00    0.00    0.00
  129    0.00    0.00    0.11    1.74    2.37    0.00  120.70    8.04    9.11    1.91    0.00    0.00    0.00    0.06    0.28     0.00    0.00    0.00    0.00
  130    0.05    0.00    0.11    1.76    2.09    0.00  112.30    6.59    7.98    1.92    0.00    0.00    0.00    0.04    0.75     0.00    0.00    0.00    0.00
  131   47.45   27.66    0.11    1.77    1.90    0.00  125.37    2.57    2.64   25.29    0.72    0.05    0.00    0.03    0.50     0.11    0.00    0.01    0.00
  132   14.03    3.77    0.11    1.79    2.01    0.00  129.67    3.35    3.43    8.51    0.00    0.01    0.00    0.02    0.56     0.03    0.00    0.00    0.00
  133    2.62    0.03    0.11    1.80    1.90    0.00  128.23    2.06    2.12    3.15    0.00    0.00    0.00    0.01    0.39     0.01    0.00    0.00    0.00
  134   11.57    2.79    0.11    1.82    2.11    0.00  132.32    2.05    2.09    4.60    0.06    0.00    0.00    0.01    0.25     0.01    0.00    0.00    0.00
  135    0.77    0.00    0.11    1.83    1.99    0.00  129.00    2.11    2.18    2.41    0.00    0.00    0.00    0.00    0.12     0.00    0.00    0.00    0.00
  136   11.33    2.64    0.11    1.84    2.16    0.00  132.79    2.16    2.22    4.33    0.05    0.00    0.00    0.00    0.11     0.01    0.00    0.00    0.00
  137    0.62    0.00    0.11    1.85    2.03    0.00  127.54    3.84    4.05    2.36    0.00    0.00    0.00    0.00    0.02     0.00    0.00    0.00    0.00
  138    3.28    0.10    0.11    1.86    1.88    0.00  124.96    3.78    3.88    2.18    0.00    0.00    0.00    0.00    0.02     0.00    0.00    0.00    0.00
  139   18.36    6.50    0.11    1.87    2.01    0.00  130.48    3.42    3.48    7.55    0.12    0.00    0.00    0.00    0.02     0.02    0.00    0.00    0.00
  140    1.80    0.02    0.11    1.88    1.91    0.00  129.07    1.19    1.25    2.87    0.00    0.00    0.00    0.00    0.02     0.00    0.00    0.00    0.00
  141   18.21    6.80    0.11    1.89    2.23    0.00  134.78    2.54    2.61    7.99    0.16    0.00    0.00    0.00    0.01     0.02    0.00    0.00    0.00
  142    0.26    0.00    0.11    1.90    2.15    0.00  129.41    3.60    4.05    2.93    0.00    0.00    0.00    0.00    0.02     0.00    0.00    0.00    0.00
  143    0.07    0.00    0.11    1.90    1.92    0.00  123.19    4.51    5.24    2.25    0.00    0.00    0.00    0.00    0.01     0.00    0.00    0.00    0.00
  144    0.05    0.00    0.11    1.91    1.69    0.00  118.80    2.79    3.57    2.12    0.00    0.00    0.00    0.00    0.01     0.00    0.00    0.00    0.00
  145    0.58    0.00    0.11    1.91    1.50    0.00  114.87    3.05    3.75    2.09    0.00    0.00    0.00    0.00    0.04     0.00    0.00    0.00    0.00
  146    0.13    0.00    0.11    1.92    1.33    0.00  111.71    2.09    3.18    2.09    0.00    0.00    0.00    0.00    0.04     0.00    0.00    0.00    0.00
  147    7.46    1.00    0.11    1.92    1.20    0.00  114.65    1.89    2.07    2.95    0.02    0.00    0.00    0.00    0.02     0.00    0.00    0.00    0.00
  148    7.38    0.48    0.11    1.92    1.15    0.00  116.75    3.35    3.66    2.61    0.00    0.00    0.00    0.00    0.04     0.00    0.00    0.00    0.00
  149   19.30    6.74    0.11    1.92    1.30    0.00  124.45    2.58    2.77    7.88    0.17    0.00    0.00    0.00    0.04     0.03    0.00    0.00    0.00
  150    0.63    0.00    0.11    1.92    1.28    0.00  121.19    2.73    3.51    2.92    0.00    0.00    0.00    0.00    0.04     0.01    0.00    0.00    0.00
  151   12.74    2.80    0.11    1.92    1.48    0.00  126.72    2.41    2.68    4.60    0.06    0.00    0.00    0.00    0.02     0.01    0.00    0.00    0.00
  152    5.15    0.25    0.11    1.92    1.61    0.00  127.61    2.13    2.34    2.68    0.00    0.00    0.00    0.00    0.01     0.00    0.00    0.00    0.00
    5  240.06   79.30    3.40   56.37   64.51    0.00  127.61   95.31  104.92  140.71    2.15    0.06    0.05    0.80    3.67     0.39    0.00    0.05    0.00
  153    5.91    0.32    0.11    1.91    1.76    0.00  129.23    1.94    2.25    2.46    0.01    0.00    0.00    0.00    0.01     0.00    0.00    0.00    0.00
  154    0.01    0.00    0.11    1.91    1.69    0.00  123.72    4.04    6.43    2.14    0.00    0.00    0.00    0.00    0.01     0.00    0.00    0.00    0.00
  155    0.35    0.00    0.11    1.91    1.48    0.00  121.29    1.35    2.28    2.09    0.00    0.00    0.00    0.00    0.01     0.00    0.00    0.00    0.00
  156    0.02    0.00    0.10    1.90    1.32    0.00  116.35    3.88    8.19    2.07    0.00    0.00    0.00    0.00    0.01     0.00    0.00    0.00    0.00
  157    0.00    0.00    0.10    1.90    1.15    0.00  112.04    3.45    8.39    2.07    0.00    0.00    0.00    0.00    0.00     0.00    0.00    0.00    0.00
  158    7.29    0.87    0.10    1.89    1.01    0.00  114.65    2.59    3.80    2.80    0.01    0.00    0.00    0.00    0.00     0.00    0.00    0.00    0.00
  159    1.38    0.00    0.10    1.88    0.90    0.00  113.45    1.72    3.10    2.16    0.00    0.00    0.00    0.00    0.00     0.00    0.00    0.00    0.00
  160    0.06    0.00    0.10    1.88    0.80    0.00  109.69    3.27    7.32    2.06    0.00    0.00    0.00    0.00    0.00     0.00    0.00    0.00    0.00
  161    9.10    1.00    0.10    1.87    0.75    0.00  113.98    2.74    4.02    2.90    0.02    0.00    0.00    0.00    0.00     0.00    0.00    0.00    0.00
  162    4.83    0.03    0.10    1.86    0.74    0.00  114.87    3.13    4.52    2.16    0.00    0.00    0.00    0.00    0.00     0.00    0.00    0.00    0.00
  163    8.04    1.15    0.10    1.85    0.83    0.00  117.26    3.44    4.78    2.99    0.02    0.00    0.00    0.00    0.00     0.00    0.00    0.00    0.00
  164    4.03    0.02    0.10    1.83    0.85    0.00  118.19    2.14    2.62    2.18    0.00    0.00    0.00    0.00    0.00     0.00    0.00    0.00    0.00
  165    0.57    0.00    0.10    1.82    0.81    0.00  115.78    2.31    3.56    2.02    0.00    0.00    0.00    0.00    0.00     0.00    0.00    0.00    0.00
  166    0.08    0.00    0.10    1.81    0.71    0.00  112.91    2.43    4.93    1.98    0.00    0.00    0.00    0.00    0.00     0.00    0.00    0.00    0.00
  167    0.20    0.00    0.10    1.79    0.62    0.00  110.83    1.86    3.96    1.96    0.00    0.00    0.00    0.00    0.00     0.00    0.00    0.00    0.00
  168   19.25    5.84    0.10    1.78    0.88    0.00  119.87    2.75    3.66    6.85    0.16    0.00    0.00    0.00    0.00     0.04    0.00    0.01    0.00
  169   22.15    8.53    0.10    1.77    1.40    0.00  128.77    2.13    2.45    9.87    0.17    0.00    0.00    0.00    0.00     0.09    0.00    0.02    0.00
  170    4.02    0.09    0.10    1.75    1.59    0.00  128.41    2.47    2.99    3.20    0.00    0.00    0.00    0.00    0.00     0.02    0.00    0.00    0.00
  171    2.18    0.00    0.10    1.74    1.61    0.00  126.78    2.07    2.36    2.17    0.00    0.00    0.00    0.00    0.00     0.00    0.00    0.00    0.00
  172    0.61    0.00    0.10    1.73    1.52    0.00  123.59    2.37    3.39    1.96    0.00    0.00    0.00    0.00    0.00     0.00    0.00    0.00    0.00
  173    9.04    1.58    0.10    1.72    1.63    0.00  126.22    2.85    3.69    3.20    0.04    0.00    0.00    0.00    0.00     0.01    0.00    0.00    0.00
  174   38.42   22.33    0.11    1.71    2.17    0.00  136.87    1.39    1.58   20.92    0.74    0.00    0.00    0.00    0.00     0.22    0.00    0.06    0.00
  175   26.08   13.62    0.12    1.70    2.76    0.00  142.65    2.76    3.49   16.14    0.07    0.00    0.00    0.01    0.00     0.17    0.00    0.04    0.00
  176   37.79   24.39    0.12    1.69    3.32    0.00  149.07    1.99    2.28   24.68    0.88    0.00    0.00    0.01    0.00     0.26    0.00    0.07    0.00
  177   13.58    5.12    0.13    1.69    3.64    0.00  151.44    1.66    1.89    9.73    0.01    0.00    0.00    0.01    0.00     0.09    0.00    0.02    0.00
  178    5.80    0.80    0.13    1.69    3.76    0.00  149.39    2.96    3.89    3.93    0.03    0.00    0.00    0.01    0.00     0.02    0.00    0.01    0.00
  179    1.16    0.00    0.13    1.70    3.56    0.00  144.69    2.21    2.69    2.31    0.00    0.00    0.00    0.01    0.00     0.00    0.00    0.00    0.00
  180    0.33    0.00    0.12    1.70    3.26    0.00  139.56    2.20    3.71    2.00    0.00    0.00    0.00    0.01    0.00     0.00    0.00    0.00    0.00
  181    0.33    0.00    0.12    1.71    2.92    0.00  134.81    2.13    3.37    1.93    0.00    0.00    0.00    0.01    0.00     0.00    0.00    0.00    0.00
  182    0.26    0.00    0.12    1.71    2.61    0.00  130.76    1.81    3.34    1.91    0.00    0.00    0.00    0.01    0.00     0.00    0.00    0.00    0.00
    6  222.88   85.70    3.25   53.80   52.04    0.00  130.76   74.02  114.90  144.85    2.17    0.02    0.03    0.08    0.04     0.94    0.01    0.25    0.00
  183    0.00    0.00    0.12    1.72    2.33    0.00  125.14    3.48    7.63    1.91    0.00    0.00    0.00    0.00    0.00     0.00    0.00    0.00    0.00
  184    0.05    0.00    0.12    1.73    2.05    0.00  121.36    1.88    4.99    1.92    0.00    0.00    0.00    0.00    0.00     0.00    0.00    0.00    0.00
  185    0.59    0.00    0.12    1.74    1.82    0.00  118.72    1.42    2.97    1.92    0.00    0.00    0.00    0.00    0.00     0.00    0.00    0.00    0.00
  186    0.58    0.00    0.11    1.74    1.62    0.00  117.02    0.65    1.25    1.92    0.00    0.00    0.00    0.00    0.00     0.00    0.00    0.00    0.00
  187    3.58    0.01    0.11    1.75    1.46    0.00  117.21    1.82    2.35    1.94    0.00    0.00    0.00    0.00    0.00     0.00    0.00    0.00    0.00
  188    8.15    1.12    0.11    1.75    1.38    0.00  120.09    2.59    3.45    2.85    0.03    0.00    0.00    0.00    0.00     0.01    0.00    0.00    0.00
  189    6.26    0.29    0.11    1.75    1.33    0.00  122.03    2.49    3.01    2.34    0.00    0.00    0.00    0.00    0.00     0.00    0.00    0.00    0.00
  190    0.06    0.00    0.11    1.75    1.20    0.00  115.91    5.15    9.84    2.01    0.00    0.00    0.00    0.00    0.00     0.00    0.00    0.00    0.00
  191    0.00    0.00    0.11    1.75    1.03    0.00  111.56    3.59    8.85    1.95    0.00    0.00    0.00    0.00    0.00     0.00    0.00    0.00    0.00
  192    0.00    0.00    0.11    1.75    0.89    0.00  107.87    3.08    9.07    1.94    0.00    0.00    0.00    0.00    0.00     0.00    0.00    0.00    0.00
  193    0.00    0.00    0.11    1.75    0.76    0.00  104.84    2.53    8.52    1.93    0.00    0.00    0.00    0.00    0.00     0.00    0.00    0.00    0.00
  194    0.01    0.00    0.11    1.75    0.64    0.00  102.48    1.99    7.27    1.92    0.00    0.00    0.00    0.00    0.00     0.00    0.00    0.00    0.00
  195    0.05    0.00    0.10    1.74    0.55    0.00  101.01    1.21    4.37    1.92    0.00    0.00    0.00    0.00    0.00     0.00    0.00    0.00    0.00
  196    0.13    0.00    0.10    1.73    0.47    0.00   99.54    1.32    4.98    1.91    0.00    0.00    0.00    0.00    0.00     0.00    0.00    0.00    0.00
  197    5.33    0.01    0.10    1.73    0.40    0.00  102.37    2.02    3.69    1.90    0.00    0.00    0.00    0.00    0.00     0.00    0.00    0.00    0.00
  198    3.98    0.01    0.10    1.72    0.35    0.00  104.12    1.85    2.77    1.90    0.00    0.00    0.00    0.00    0.00     0.00    0.00    0.00    0.00
  199    9.24    0.78    0.10    1.70    0.30    0.00  110.05    1.81    2.06    2.55    0.03    0.00    0.00    0.00    0.00     0.01    0.00    0.00    0.00
  200    1.26    0.00    0.10    1.69    0.26    0.00  109.29    1.79    2.09    1.95    0.00    0.00    0.00    0.00    0.00     0.00    0.00    0.00    0.00
  201    7.90    0.51    0.10    1.68    0.35    0.00  113.73    2.33    2.63    2.29    0.02    0.00    0.00    0.00    0.00     0.00    0.00    0.00    0.00
  202    3.08    0.00    0.10    1.66    0.41    0.00  113.26    3.14    4.13    1.91    0.00    0.00    0.00    0.00    0.00     0.00    0.00    0.00    0.00
  203    0.76    0.00    0.10    1.65    0.35    0.00  111.80    1.95    2.46    1.83    0.00    0.00    0.00    0.00    0.00     0.00    0.00    0.00    0.00
  204   12.81    2.32    0.10    1.63    0.66    0.00  119.03    2.06    2.29    3.76    0.09    0.00    0.00    0.00    0.00     0.02    0.00    0.00    0.00
  205    4.31    0.04    0.10    1.62    0.83    0.00  120.64    1.64    1.83    2.11    0.00    0.00    0.00    0.00    0.00     0.00    0.00    0.00    0.00
  206   14.38    3.90    0.10    1.60    1.27    0.00  126.79    2.31    2.58    5.12    0.17    0.00    0.00    0.00    0.00     0.04    0.00    0.01    0.00
  207    9.50    1.54    0.10    1.59    1.64    0.00  130.43    2.12    2.34    3.57    0.00    0.00    0.00    0.01    0.00     0.02    0.00    0.01    0.00
  208    5.73    0.41    0.11    1.57    1.88    0.00  131.11    2.54    2.99    2.39    0.01    0.00    0.00    0.01    0.00     0.01    0.00    0.00    0.00
  209    2.78    0.00    0.11    1.56    1.89    0.00  129.45    2.49    2.88    1.86    0.00    0.00    0.00    0.01    0.00     0.00    0.00    0.00    0.00
  210    0.71    0.00    0.11    1.55    1.77    0.00  125.83    2.58    3.47    1.76    0.00    0.00    0.00    0.01    0.00     0.00    0.00    0.00    0.00
  211    3.23    0.02    0.10    1.54    1.65    0.00  124.83    2.46    2.85    1.74    0.00    0.00    0.00    0.01    0.00     0.00    0.00    0.00    0.00
  212    1.11    0.00    0.10    1.53    1.48    0.00  122.43    2.08    2.56    1.71    0.00    0.00    0.00    0.01    0.00     0.00    0.00    0.00    0.00
  213    0.69    0.00    0.10    1.53    1.31    0.00  118.70    3.18    5.11    1.70    0.00    0.00    0.00    0.01    0.00     0.00    0.00    0.00    0.00
    7  106.25   10.96    3.29   51.96   34.32    0.00  118.70   71.58  127.28   68.41    0.35    0.01    0.02    0.10    0.00     0.12    0.00    0.03    0.00
  214    0.37    0.00    0.10    1.52    1.15    0.00  117.27    0.66    1.15    1.69    0.00    0.00    0.00    0.00    0.00     0.00    0.00    0.00    0.00
  215    0.07    0.00    0.10    1.51    1.03    0.00  113.46    3.00    6.33    1.68    0.00    0.00    0.00    0.00    0.00     0.00    0.00    0.00    0.00
  216    7.85    0.88    0.10    1.50    0.94    0.00  116.75    2.47    3.05    2.40    0.04    0.00    0.00    0.00    0.00     0.01    0.00    0.00    0.00
  217   66.62   45.68    0.11    1.49    1.62    0.00  129.75    3.57    4.89   40.29    2.97    0.00    0.00    0.01    0.00     0.52    0.01    0.13    0.00
  218   10.85    2.44    0.11    1.48    1.96    0.00  133.02    2.71    3.27    9.33    0.00    0.00    0.00    0.01    0.00     0.11    0.00    0.03    0.00
  219    5.37    0.29    0.11    1.48    2.12    0.00  132.95    2.80    3.45    3.40    0.02    0.00    0.00    0.01    0.00     0.03    0.00    0.01    0.00
  220    1.69    0.00    0.11    1.47    2.05    0.00  129.88    2.68    3.44    2.05    0.00    0.00    0.00    0.01    0.00     0.01    0.00    0.00    0.00
  221    0.15    0.00    0.11    1.47    1.87    0.00  125.01    3.33    5.63    1.75    0.00    0.00    0.00    0.01    0.00     0.00    0.00    0.00    0.00
  222    1.35    0.00    0.11    1.47    1.65    0.00  122.11    2.69    3.63    1.67    0.00    0.00    0.00    0.01    0.00     0.00    0.00    0.00    0.00
  223    3.01    0.00    0.11    1.46    1.48    0.00  120.87    2.74    3.62    1.65    0.00    0.00    0.00    0.01    0.00     0.00    0.00    0.00    0.00
  224    7.66    0.75    0.11    1.46    1.43    0.00  123.51    2.48    2.87    2.27    0.04    0.00    0.00    0.01    0.00     0.01    0.00    0.00    0.00
  225    1.92    0.01    0.11    1.46    1.33    0.00  121.51    2.55    3.20    1.74    0.00    0.00    0.00    0.01    0.00     0.00    0.00    0.00    0.00
  226    2.53    0.00    0.10    1.45    1.23    0.00  120.04    2.74    3.43    1.66    0.00    0.00    0.00    0.01    0.00     0.00    0.00    0.00    0.00
  227    0.66    0.00    0.10    1.45    1.09    0.00  117.77    1.95    2.63    1.63    0.00    0.00    0.00    0.01    0.00     0.00    0.00    0.00    0.00
  228    0.33    0.00    0.10    1.45    0.97    0.00  115.51    1.72    2.84    1.62    0.00    0.00    0.00    0.01    0.00     0.00    0.00    0.00    0.00
  229    2.43    0.01    0.10    1.44    0.87    0.00  115.03    1.99    2.31    1.62    0.00    0.00    0.00    0.00    0.00     0.00    0.00    0.00    0.00
  230    2.05    0.00    0.10    1.44    0.78    0.00  113.95    2.40    3.11    1.61    0.00    0.00    0.00    0.00    0.00     0.00    0.00    0.00    0.00
  231   17.88    5.29    0.10    1.43    1.03    0.00  122.10    2.74    3.29    5.99    0.35    0.00    0.00    0.01    0.00     0.06    0.00    0.01    0.00
  232    0.99    0.00    0.10    1.42    1.02    0.00  119.84    2.29    2.76    2.30    0.00    0.00    0.00    0.01    0.00     0.01    0.00    0.00    0.00
  233   14.44    3.63    0.10    1.42    1.35    0.00  125.90    2.76    3.33    4.80    0.27    0.00    0.00    0.01    0.00     0.05    0.00    0.01    0.00
  234    2.20    0.00    0.10    1.41    1.38    0.00  124.15    2.48    2.85    2.07    0.00    0.00    0.00    0.01    0.00     0.01    0.00    0.00    0.00
  235   11.28    2.76    0.11    1.41    1.67    0.00  127.71    2.82    3.50    3.99    0.20    0.00    0.00    0.01    0.00     0.03    0.00    0.01    0.00
  236    0.95    0.00    0.11    1.40    1.58    0.00  124.64    2.52    3.51    1.96    0.00    0.00    0.00    0.01    0.00     0.00    0.00    0.00    0.00
  237    0.17    0.00    0.10    1.40    1.43    0.00  121.56    1.89    3.15    1.66    0.00    0.00    0.00    0.01    0.00     0.00    0.00    0.00    0.00
  238    4.61    0.14    0.10    1.40    1.35    0.00  121.84    2.74    3.34    1.71    0.01    0.00    0.00    0.01    0.00     0.00    0.00    0.00    0.00
  239    0.79    0.00    0.10    1.39    1.21    0.00  118.86    2.64    3.60    1.59    0.00    0.00    0.00    0.01    0.00     0.00    0.00    0.00    0.00
  240    0.11    0.00    0.10    1.39    1.07    0.00  115.53    2.55    4.77    1.57    0.00    0.00    0.00    0.01    0.00     0.00    0.00    0.00    0.00
  241    0.01    0.00    0.10    1.38    0.94    0.00  111.89    2.96    6.71    1.56    0.00    0.00    0.00    0.01    0.00     0.00    0.00    0.00    0.00
  242    0.69    0.00    0.10    1.38    0.81    0.00  109.50    2.36    5.23    1.55    0.00    0.00    0.00    0.00    0.00     0.00    0.00    0.00    0.00
  243    0.72    0.00    0.10    1.37    0.71    0.00  108.37    1.20    2.26    1.54    0.00    0.00    0.00    0.00    0.00     0.00    0.00    0.00    0.00
  244    3.96    0.00    0.10    1.36    0.62    0.00  109.65    1.94    2.56    1.54    0.00    0.00    0.00    0.00    0.00     0.00    0.00    0.00    0.00
    8  173.75   61.89    3.22   44.55   39.72    0.00  109.65   76.35  109.74  111.87    3.89    0.01    0.02    0.22    0.00     0.83    0.01    0.20    0.00
  245    0.48    0.00    0.10    1.36    0.55    0.00  108.19    1.40    2.81    1.52    0.00    0.00    0.00    0.00    0.00     0.00    0.00    0.00    0.00
  246    2.17    0.00    0.09    1.35    0.48    0.00  109.31    0.47    0.57    1.52    0.00    0.00    0.00    0.00    0.00     0.00    0.00    0.00    0.00
  247    6.44    0.32    0.10    1.34    0.48    0.00  113.99    0.65    0.72    1.78    0.02    0.00    0.00    0.00    0.00     0.00    0.00    0.00    0.00
  248   20.29    6.99    0.10    1.33    0.98    0.00  123.03    2.36    2.62    7.44    0.54    0.00    0.00    0.01    0.00     0.07    0.00    0.02    0.00
  249    3.88    0.02    0.10    1.32    1.13    0.00  123.20    2.39    2.66    2.37    0.00    0.00    0.00    0.01    0.00     0.01    0.00    0.00    0.00
  250    0.00    0.00    0.10    1.32    1.11    0.00  116.96    5.30    9.31    1.67    0.00    0.00    0.00    0.01    0.00     0.00    0.00    0.00    0.00
  251    5.90    0.22    0.10    1.31    1.02    0.00  119.24    2.14    2.31    1.72    0.02    0.00    0.00    0.01    0.00     0.00    0.00    0.00    0.00
  252    2.92    0.02    0.10    1.30    0.99    0.00  118.35    2.84    3.49    1.52    0.00    0.00    0.00    0.01    0.00     0.00    0.00    0.00    0.00
  253    0.43    0.00    0.10    1.29    0.87    0.00  115.28    2.77    4.33    1.47    0.00    0.00    0.00    0.00    0.00     0.00    0.00    0.00    0.00
  254    7.37    0.49    0.10    1.28    0.89    0.00  118.64    2.39    2.63    1.87    0.03    0.00    0.00    0.01    0.00     0.00    0.00    0.00    0.00
  255    3.44    0.00    0.10    1.28    0.90    0.00  118.62    2.43    2.72    1.50    0.00    0.00    0.00    0.00    0.00     0.00    0.00    0.00    0.00
  256    0.02    0.00    0.10    1.27    0.81    0.00  115.00    3.02    5.14    1.45    0.00    0.00    0.00    0.00    0.00     0.00    0.00    0.00    0.00
  257    4.09    0.03    0.10    1.26    0.74    0.00  115.87    2.30    2.54    1.46    0.00    0.00    0.00    0.00    0.00     0.00    0.00    0.00    0.00
  258    0.57    0.00    0.09    1.25    0.66    0.00  114.82    1.00    1.39    1.42    0.00    0.00    0.00    0.00    0.00     0.00    0.00    0.00    0.00
  259    0.38    0.00    0.09    1.24    0.59    0.00  112.82    1.81    2.40    1.40    0.00    0.00    0.00    0.00    0.00     0.00    0.00    0.00    0.00
  260    0.02    0.00    0.09    1.23    0.52    0.00  109.39    3.12    6.17    1.39    0.00    0.00    0.00    0.00    0.00     0.00    0.00    0.00    0.00
  261    0.01    0.00    0.09    1.22    0.44    0.00  107.29    1.81    4.30    1.38    0.00    0.00    0.00    0.00    0.00     0.00    0.00    0.00    0.00
  262    0.15    0.00    0.09    1.21    0.37    0.00  106.59    0.52    1.26    1.37    0.00    0.00    0.00    0.00    0.00     0.00    0.00    0.00    0.00
  263    0.01    0.00    0.09    1.20    0.33    0.00  104.50    1.98    5.05    1.36    0.00    0.00    0.00    0.00    0.00     0.00    0.00    0.00    0.00
  264    0.80    0.00    0.09    1.19    0.27    0.00  104.34    0.73    1.30    1.34    0.00    0.00    0.00    0.00    0.00     0.00    0.00    0.00    0.00
  265    0.18    0.00    0.09    1.18    0.24    0.00  102.69    1.76    3.86    1.33    0.00    0.00    0.00    0.00    0.00     0.00    0.00    0.00    0.00
  266    1.17    0.00    0.08    1.16    0.20    0.00  103.42    0.18    0.25    1.32    0.00    0.00    0.00    0.00    0.00     0.00    0.00    0.00    0.00
  267   15.20    2.92    0.09    1.15    0.29    0.00  112.98    1.76    1.87    3.76    0.26    0.00    0.00    0.00    0.00     0.03    0.00    0.01    0.00
  268    9.18    1.02    0.09    1.14    0.57    0.00  118.03    2.12    2.28    2.53    0.02    0.00    0.00    0.00    0.00     0.02    0.00    0.00    0.00
  269    5.70    0.64    0.09    1.13    0.76    0.00  120.17    1.84    1.98    2.03    0.06    0.00    0.00    0.01    0.00     0.02    0.00    0.00    0.00
  270    0.00    0.00    0.09    1.11    0.80    0.00  114.76    4.80    8.23    1.38    0.00    0.00    0.00    0.01    0.00     0.00    0.00    0.00    0.00
  271    0.08    0.00    0.09    1.10    0.68    0.00  111.97    2.36    4.58    1.28    0.00    0.00    0.00    0.00    0.00     0.00    0.00    0.00    0.00
  272    0.01    0.00    0.09    1.09    0.59    0.00  108.03    3.56    8.19    1.25    0.00    0.00    0.00    0.00    0.00     0.00    0.00    0.00    0.00
  273    0.03    0.00    0.08    1.08    0.49    0.00  106.07    1.67    4.40    1.23    0.00    0.00    0.00    0.00    0.00     0.00    0.00    0.00    0.00
  274    0.13    0.00    0.08    1.07    0.42    0.00  104.19    1.77    4.71    1.22    0.00    0.00    0.00    0.00    0.00     0.00    0.00    0.00    0.00
    9   91.03   12.69    2.76   36.74   19.15    0.00  104.19   63.24  104.07   54.27    0.95    0.00    0.01    0.11    0.00     0.17    0.00    0.04    0.00
  275    0.00    0.00    0.08    1.05    0.35    0.00  102.56    1.45    4.42    1.20    0.00    0.00    0.00    0.00    0.00     0.00    0.00    0.00    0.00
  276    0.06    0.00    0.08    1.04    0.30    0.00  101.46    0.99    3.07    1.19    0.00    0.00    0.00    0.00    0.00     0.00    0.00    0.00    0.00
  277    0.06    0.00    0.08    1.03    0.25    0.00  100.31    1.02    3.54    1.17    0.00    0.00    0.00    0.00    0.00     0.00    0.00    0.00    0.00
  278    0.19    0.00    0.08    1.02    0.21    0.00   99.60    0.81    2.35    1.16    0.00    0.00    0.00    0.00    0.00     0.00    0.00    0.00    0.00
  279    0.05    0.00    0.08    1.00    0.18    0.00   98.18    1.37    4.80    1.15    0.00    0.00    0.00    0.00    0.00     0.00    0.00    0.00    0.00
  280    0.00    0.00    0.08    0.99    0.14    0.00   96.74    1.45    5.51    1.13    0.00    0.00    0.00    0.00    0.00     0.00    0.00    0.00    0.00
  281    0.04    0.00    0.08    0.98    0.10    0.00   95.85    0.91    3.67    1.12    0.00    0.00    0.00    0.00    0.00     0.00    0.00    0.00    0.00
  282    0.00    0.00    0.08    0.96    0.08    0.00   94.65    1.28    5.27    1.10    0.00    0.00    0.00    0.00    0.00     0.00    0.00    0.00    0.00
  283    0.01    0.00    0.07    0.95    0.05    0.00   93.71    1.01    4.47    1.09    0.00    0.00    0.00    0.00    0.00     0.00    0.00    0.00    0.00
  284    0.18    0.00    0.07    0.93    0.04    0.00   93.71    0.17    0.58    1.07    0.00    0.00    0.00    0.00    0.00     0.00    0.00    0.00    0.00
  285    0.16    0.00    0.07    0.92    0.03    0.00   93.62    0.24    0.92    1.05    0.00    0.00    0.00    0.00    0.00     0.00    0.00    0.00    0.00
  286    0.16    0.00    0.07    0.90    0.03    0.00   93.42    0.38    1.34    1.04    0.00    0.00    0.00    0.00    0.00     0.00    0.00    0.00    0.00
  287    0.12    0.00    0.07    0.88    0.02    0.00   92.90    0.74    2.49    1.02    0.00    0.00    0.00    0.00    0.00     0.00    0.00    0.00    0.00
  288    0.04    0.00    0.07    0.86    0.01    0.00   92.03    0.99    3.68    0.99    0.00    0.00    0.00    0.00    0.00     0.00    0.00    0.00    0.00
  289    0.00    0.00    0.07    0.84    0.00    0.00   91.02    1.18    5.12    0.97    0.00    0.00    0.00    0.00    0.00     0.00    0.00    0.00    0.00
  290    0.01    0.00    0.07    0.82    0.00    0.00   90.37    0.84    3.78    0.95    0.00    0.00    0.00    0.00    0.00     0.00    0.00    0.00    0.00
  291    0.72    0.00    0.07    0.78    0.00    0.00   90.25    0.93    2.43    0.91    0.00    0.00    0.00    0.00    0.00     0.00    0.00    0.00    0.00
  292    0.18    0.00    0.07    0.75    0.00    0.00   89.59    0.97    3.64    0.88    0.00    0.00    0.00    0.00    0.00     0.00    0.00    0.00    0.00
  293    0.45    0.00    0.07    0.72    0.00    0.00   89.51    0.54    1.77    0.85    0.00    0.00    0.00    0.00    0.00     0.00    0.00    0.00    0.00
  294    0.00    0.00    0.07    0.67    0.00    0.00   88.47    1.20    4.98    0.80    0.00    0.00    0.00    0.00    0.00     0.00    0.00    0.00    0.00
  295    0.00    0.00    0.07    0.62    0.00    0.00   87.11    1.53    8.36    0.74    0.00    0.00    0.00    0.00    0.00     0.00    0.00    0.00    0.00
  296    0.00    0.00    0.06    0.52    0.00    0.00   85.81    1.48    8.60    0.65    0.00    0.00    0.00    0.00    0.00     0.00    0.00    0.00    0.00
  297    0.00    0.00    0.06    0.48    0.00    0.00   84.97    1.01    5.95    0.61    0.00    0.00    0.00    0.00    0.00     0.00    0.00    0.00    0.00
  298    0.20    0.00    0.06    0.46    0.00    0.00   84.61    0.68    3.19    0.58    0.00    0.00    0.00    0.00    0.00     0.00    0.00    0.00    0.00
  299    0.17    0.00    0.06    0.43    0.00    0.00   84.45    0.43    1.75    0.56    0.00    0.00    0.00    0.00    0.00     0.00    0.00    0.00    0.00
  300    0.59    0.00    0.06    0.40    0.00    0.00   84.72    0.36    0.99    0.52    0.00    0.00    0.00    0.00    0.00     0.00    0.00    0.00    0.00
  301    0.76    0.00    0.06    0.37    0.00    0.00   84.20    1.28    2.62    0.49    0.00    0.00    0.00    0.00    0.00     0.00    0.00    0.00    0.00
  302    0.19    0.00    0.06    0.36    0.00    0.00   84.01    0.50    1.79    0.47    0.00    0.00    0.00    0.00    0.00     0.00    0.00    0.00    0.00
  303    0.01    0.00    0.06    0.31    0.00    0.00   83.08    1.11    5.68    0.43    0.00    0.00    0.00    0.00    0.00     0.00    0.00    0.00    0.00
  304   38.09   14.15    0.06    0.30    0.00    0.00  104.00    1.32    1.43   12.34    2.40    0.01    0.00    0.00    0.00     0.28    0.00    0.06    0.00
  305    0.84    0.00    0.06    0.30    0.00    0.00  103.37    1.47    1.80    2.18    0.00    0.00    0.00    0.00    0.00     0.04    0.00    0.01    0.00
   10   43.30   14.15    2.17   22.64    1.79    0.00  103.37   29.63  109.98   40.39    2.40    0.01    0.01    0.01    0.00     0.33    0.00    0.06    0.00
  306    0.00    0.00    0.06    0.29    0.00    0.00  101.56    1.91    3.62    0.77    0.00    0.00    0.00    0.00    0.00     0.01    0.00    0.00    0.00
  307    0.00    0.00    0.06    0.27    0.00    0.00   99.40    2.29    5.45    0.48    0.00    0.00    0.00    0.00    0.00     0.00    0.00    0.00    0.00
  308    0.01    0.00    0.06    0.27    0.00    0.00   97.95    1.57    4.25    0.40    0.00    0.00    0.00    0.00    0.00     0.00    0.00    0.00    0.00
  309    3.56    0.00    0.06    0.26    0.00    0.00  100.78    0.65    0.77    0.39    0.00    0.00    0.00    0.00    0.00     0.00    0.00    0.00    0.00
  310    0.91    0.00    0.06    0.26    0.00    0.00  100.07    1.65    1.91    0.37    0.00    0.00    0.00    0.00    0.00     0.00    0.00    0.00    0.00
  311    0.03    0.00    0.06    0.24    0.00    0.00   99.10    1.07    2.47    0.35    0.00    0.00    0.00    0.00    0.00     0.00    0.00    0.00    0.00
  312    2.87    0.00    0.06    0.23    0.00    0.00  100.90    1.04    1.24    0.35    0.00    0.00    0.00    0.00    0.00     0.00    0.00    0.00    0.00
  313    0.67    0.00    0.06    0.21    0.00    0.00  100.01    1.59    2.86    0.32    0.00    0.00    0.00    0.00    0.00     0.00    0.00    0.00    0.00
  314    0.98    0.00    0.06    0.21    0.00    0.00  100.39    0.63    0.85    0.32    0.00    0.00    0.00    0.00    0.00     0.00    0.00    0.00    0.00
  315    7.61    0.39    0.06    0.21    0.02    0.00  106.29    1.04    1.14    0.65    0.06    0.00    0.00    0.00    0.00     0.00    0.00    0.00    0.00
  316    4.39    0.01    0.06    0.21    0.05    0.00  109.96    0.47    0.50    0.37    0.00    0.00    0.00    0.00    0.00     0.00    0.00    0.00    0.00
  317    0.09    0.00    0.06    0.20    0.08    0.00  108.75    1.28    1.50    0.32    0.00    0.00    0.00    0.00    0.00     0.00    0.00    0.00    0.00
  318    0.00    0.00    0.06    0.17    0.08    0.00  106.38    2.40    3.63    0.29    0.00    0.00    0.00    0.00    0.00     0.00    0.00    0.00    0.00
  319    0.05    0.00    0.06    0.17    0.07    0.00  105.13    1.32    2.61    0.28    0.00    0.00    0.00    0.00    0.00     0.00    0.00    0.00    0.00
  320    0.06    0.00    0.06    0.16    0.06    0.00  104.01    1.23    2.37    0.27    0.00    0.00    0.00    0.00    0.00     0.00    0.00    0.00    0.00
  321    5.48    0.10    0.06    0.16    0.07    0.00  107.40    1.72    1.83    0.36    0.01    0.00    0.00    0.00    0.00     0.00    0.00    0.00    0.00
  322    4.44    0.00    0.06    0.17    0.14    0.00  111.31    0.14    0.15    0.29    0.00    0.00    0.00    0.00    0.00     0.00    0.00    0.00    0.00
  323    0.76    0.00    0.06    0.17    0.18    0.00  110.80    1.07    1.12    0.28    0.00    0.00    0.00    0.00    0.00     0.00    0.00    0.00    0.00
  324    0.82    0.00    0.06    0.17    0.18    0.00  111.04    0.38    0.41    0.27    0.00    0.00    0.00    0.00    0.00     0.00    0.00    0.00    0.00
  325    0.20    0.00    0.06    0.17    0.17    0.00  110.23    0.90    0.96    0.27    0.00    0.00    0.00    0.00    0.00     0.00    0.00    0.00    0.00
  326    5.61    0.10    0.06    0.17    0.33    0.00  114.98    0.13    0.13    0.36    0.02    0.00    0.00    0.00    0.00     0.00    0.00    0.00    0.00
  327    2.15    0.00    0.06    0.17    0.44    0.00  115.95    0.65    0.69    0.29    0.00    0.00    0.00    0.00    0.00     0.00    0.00    0.00    0.00
  328   12.73    2.49    0.06    0.17    0.86    0.00  124.33    0.27    0.29    2.37    0.48    0.00    0.00    0.01    0.00     0.05    0.00    0.01    0.00
  329    0.01    0.00    0.06    0.17    0.98    0.00  120.64    2.71    3.44    0.59    0.00    0.00    0.00    0.01    0.00     0.01    0.00    0.00    0.00
  330    2.39    0.00    0.06    0.18    0.98    0.00  120.75    1.20    1.26    0.35    0.00    0.00    0.00    0.01    0.00     0.00    0.00    0.00    0.00
  331   25.28   11.13    0.07    0.18    1.57    0.00  131.14    1.04    1.11    9.67    3.11    0.00    0.00    0.02    0.00     0.25    0.00    0.05    0.00
  332    0.74    0.00    0.07    0.19    1.65    0.00  128.43    1.71    1.82    1.69    0.00    0.00    0.00    0.02    0.00     0.04    0.00    0.01    0.00
  333   51.99   34.56    0.07    0.20    2.33    0.00  140.48    0.55    0.59   29.70   10.32    0.00    0.00    0.03    0.00     0.94    0.00    0.18    0.00
  334    6.97    0.95    0.08    0.21    2.66    0.00  142.66    0.63    0.66    5.50    0.00    0.00    0.00    0.03    0.00     0.19    0.00    0.03    0.00
  335   43.90   29.60    0.08    0.23    3.31    0.00  151.12    0.24    0.25   26.26    9.07    0.00    0.00    0.04    0.00     0.76    0.00    0.14    0.00
   11  184.70   79.34    1.84    6.07   16.19    0.00  151.12   33.49   49.88   84.19   23.08    0.01    0.01    0.17    0.00     2.25    0.01    0.42    0.00
  336   17.85    8.46    0.09    0.25    3.80    0.00  155.52    0.14    0.15   11.44    0.11    0.00    0.00    0.04    0.00     0.30    0.00    0.05    0.00
  337    5.70    0.83    0.09    0.27    4.00    0.00  155.34    0.51    0.53    2.99    0.23    0.00    0.00    0.04    0.00     0.07    0.00    0.01    0.00
  338    0.06    0.00    0.09    0.30    3.89    0.00  150.46    0.84    1.00    0.96    0.00    0.00    0.00    0.04    0.00     0.02    0.00    0.00    0.00
  339    0.06    0.00    0.09    0.33    3.66    0.00  145.86    0.90    1.14    0.59    0.00    0.00    0.00    0.04    0.00     0.00    0.00    0.00    0.00
  340   12.97    4.50    0.09    0.36    3.71    0.00  148.89    0.98    1.04    4.31    1.11    0.00    0.00    0.04    0.00     0.08    0.00    0.01    0.00
  341    0.11    0.00    0.09    0.40    3.49    0.00  145.03    0.36    0.46    1.11    0.00    0.00    0.00    0.03    0.00     0.01    0.00    0.00    0.00
  342    0.02    0.00    0.09    0.43    3.22    0.00  139.73    2.06    2.79    0.69    0.00    0.00    0.00    0.03    0.00     0.00    0.00    0.00    0.00
  343    0.07    0.00    0.09    0.47    2.89    0.00  136.25    0.58    0.84    0.63    0.00    0.00    0.00    0.02    0.00     0.00    0.00    0.00    0.00
  344    0.03    0.00    0.09    0.50    2.59    0.00  131.79    1.90    3.13    0.65    0.00    0.00    0.00    0.02    0.00     0.00    0.00    0.00    0.00
  345    0.03    0.00    0.09    0.54    2.31    0.00  128.72    0.78    1.45    0.68    0.00    0.00    0.00    0.02    0.00     0.00    0.00    0.00    0.00
  346    3.19    0.02    0.09    0.58    2.09    0.00  129.33    0.29    0.31    0.73    0.00    0.00    0.00    0.02    0.00     0.00    0.00    0.00    0.00
  347    0.10    0.00    0.09    0.61    1.89    0.00  127.30    0.19    0.20    0.75    0.00    0.00    0.00    0.01    0.00     0.00    0.00    0.00    0.00
  348    0.02    0.00    0.08    0.64    1.70    0.00  123.46    2.20    2.71    0.78    0.00    0.00    0.00    0.01    0.00     0.00    0.00    0.00    0.00
  349    0.02    0.00    0.08    0.68    1.51    0.00  120.68    1.33    2.29    0.81    0.00    0.00    0.00    0.01    0.00     0.00    0.00    0.00    0.00
  350    0.10    0.00    0.08    0.71    1.35    0.00  119.13    0.29    0.57    0.84    0.00    0.00    0.00    0.01    0.00     0.00    0.00    0.00    0.00
  351    0.08    0.00    0.08    0.73    1.21    0.00  116.87    1.11    2.24    0.86    0.00    0.00    0.00    0.01    0.00     0.00    0.00    0.00    0.00
  352    0.06    0.00    0.08    0.76    1.08    0.00  114.82    1.04    2.33    0.89    0.00    0.00    0.00    0.01    0.00     0.00    0.00    0.00    0.00
  353   12.24    2.19    0.08    0.79    1.13    0.00  122.48    0.67    0.71    2.75    0.63    0.00    0.00    0.01    0.00     0.04    0.00    0.01    0.00
  354    0.00    0.00    0.08    0.81    1.07    0.00  119.71    1.72    2.12    1.21    0.00    0.00    0.00    0.01    0.00     0.01    0.00    0.00    0.00
  355    0.06    0.00    0.08    0.83    0.95    0.00  118.22    0.63    0.98    1.02    0.00    0.00    0.00    0.01    0.00     0.00    0.00    0.00    0.00
  356    2.13    0.00    0.08    0.85    0.89    0.00  119.08    0.28    0.30    0.99    0.00    0.00    0.00    0.01    0.00     0.00    0.00    0.00    0.00
  357    1.80    0.00    0.08    0.87    0.88    0.00  119.76    0.12    0.13    1.00    0.00    0.00    0.00    0.01    0.00     0.00    0.00    0.00    0.00
  358    0.00    0.00    0.08    0.89    0.82    0.00  118.02    0.95    1.00    1.02    0.00    0.00    0.00    0.01    0.00     0.00    0.00    0.00    0.00
  359    0.00    0.00    0.08    0.90    0.74    0.00  115.74    1.60    2.17    1.03    0.00    0.00    0.00    0.00    0.00     0.00    0.00    0.00    0.00
  360    0.09    0.00    0.08    0.92    0.65    0.00  114.28    0.90    1.44    1.04    0.00    0.00    0.00    0.00    0.00     0.00    0.00    0.00    0.00
  361    0.10    0.00    0.08    0.93    0.58    0.00  113.33    0.48    0.82    1.06    0.00    0.00    0.00    0.00    0.00     0.00    0.00    0.00    0.00
  362   17.41    4.90    0.08    0.94    0.95    0.00  123.35    0.69    0.72    5.19    1.41    0.00    0.00    0.01    0.00     0.08    0.00    0.01    0.00
  363    3.31    0.01    0.08    0.95    1.14    0.00  124.95    0.36    0.39    1.70    0.00    0.00    0.00    0.01    0.00     0.01    0.00    0.00    0.00
  364    5.87    0.33    0.08    0.96    1.42    0.00  127.97    0.74    0.77    1.50    0.10    0.00    0.00    0.01    0.00     0.01    0.00    0.00    0.00
  365    1.78    0.00    0.08    0.97    1.50    0.00  126.87    1.20    1.22    1.18    0.00    0.00    0.00    0.01    0.00     0.00    0.00    0.00    0.00
  366    0.17    0.00    0.08    0.98    1.45    0.00  124.76    0.80    1.06    1.13    0.00    0.00    0.00    0.01    0.00     0.00    0.00    0.00    0.00
   12   85.40   21.24    2.60   21.18   58.53    0.00  124.76   26.65   37.01   51.53    3.60    0.00    0.01    0.50    0.00     0.63    0.00    0.11    0.00

 2012 1802.73  575.33   28.80  382.18  475.95    0.00  124.76  618.19  943.90 1003.23  228.28    3.57    0.24    9.97   46.19   102.26    0.05   13.00    0.00
1
    SWAT May 26   VER 2020/Rev 681                                                  

    General Input/Output section (file.cio):                                        
    2024/8/23 0:00:00 ARCGIS-SWAT interface AV                                      
                                                                                    
Annual Summary for Watershed in year    2 of simulation

UNIT                                    PERCO    TILE                           WATER     SED     NO3     NO3     NO3     NO3        N       P       P
TIME     PREC    SURQ    LATQ     GWQ    LATE       Q     SW       ET     PET   YIELD   YIELD    SURQ    LATQ    PERC    CROP  ORGANIC SOLUBLE ORGANIC TILENO3
         (mm)    (mm)    (mm)    (mm)    (mm)    (mm)    (mm)    (mm)    (mm)    (mm)   (t/ha)  ------------------(kg nutrient/ha)-------------------- (kg/ha)
    1    0.00    0.00    0.08    0.99    1.34    0.00  121.66    1.76    2.55    1.13    0.00    0.00    0.00    0.01    0.00     0.00    0.00    0.00    0.00
    2    0.00    0.00    0.08    1.00    1.18    0.00  118.54    1.95    3.24    1.13    0.00    0.00    0.00    0.01    0.00     0.00    0.00    0.00    0.00
    3    0.30    0.00    0.08    1.01    1.05    0.00  117.44    0.36    0.63    1.14    0.00    0.00    0.00    0.01    0.00     0.00    0.00    0.00    0.00
    4    0.42    0.00    0.08    1.02    0.94    0.00  116.42    0.48    0.78    1.15    0.00    0.00    0.00    0.01    0.00     0.00    0.00    0.00    0.00
    5    1.87    0.00    0.08    1.02    0.84    0.00  117.28    0.08    0.08    1.15    0.00    0.00    0.00    0.00    0.00     0.00    0.00    0.00    0.00
    6    1.85    0.00    0.08    1.03    0.78    0.00  117.95    0.32    0.34    1.16    0.00    0.00    0.00    0.00    0.00     0.00    0.00    0.00    0.00
    7    2.02    0.00    0.08    1.04    0.78    0.00  118.29    0.80    0.84    1.16    0.00    0.00    0.00    0.00    0.00     0.00    0.00    0.00    0.00
    8    0.34    0.00    0.08    1.04    0.72    0.00  117.14    0.75    0.87    1.17    0.00    0.00    0.00    0.00    0.00     0.00    0.00    0.00    0.00
    9    0.00    0.00    0.07    1.04    0.65    0.00  113.83    2.74    3.78    1.17    0.00    0.00    0.00    0.00    0.00     0.00    0.00    0.00    0.00
   10    0.00    0.00    0.07    1.04    0.56    0.00  112.38    0.93    1.67    1.17    0.00    0.00    0.00    0.00    0.00     0.00    0.00    0.00    0.00
   11    0.00    0.00    0.07    1.05    0.50    0.00  110.10    1.85    3.74    1.17    0.00    0.00    0.00    0.00    0.00     0.00    0.00    0.00    0.00
   12    0.08    0.00    0.07    1.05    0.43    0.00  109.16    0.69    1.46    1.17    0.00    0.00    0.00    0.00    0.00     0.00    0.00    0.00    0.00
   13    0.07    0.00    0.07    1.04    0.38    0.00  108.08    0.84    1.92    1.17    0.00    0.00    0.00    0.00    0.00     0.00    0.00    0.00    0.00
   14    1.23    0.00    0.07    1.04    0.33    0.00  107.69    1.32    1.63    1.16    0.00    0.00    0.00    0.00    0.00     0.00    0.00    0.00    0.00
   15    0.24    0.00    0.07    1.04    0.29    0.00  107.39    0.27    0.53    1.16    0.00    0.00    0.00    0.00    0.00     0.00    0.00    0.00    0.00
   16    0.17    0.00    0.07    1.04    0.26    0.00  106.69    0.67    1.17    1.16    0.00    0.00    0.00    0.00    0.00     0.00    0.00    0.00    0.00
   17    0.35    0.00    0.07    1.03    0.23    0.00  106.50    0.34    0.63    1.15    0.00    0.00    0.00    0.00    0.00     0.00    0.00    0.00    0.00
   18    0.00    0.00    0.07    1.03    0.20    0.00  105.38    0.98    1.56    1.14    0.00    0.00    0.00    0.00    0.00     0.00    0.00    0.00    0.00
   19    0.00    0.00    0.07    1.02    0.17    0.00  104.62    0.66    1.36    1.14    0.00    0.00    0.00    0.00    0.00     0.00    0.00    0.00    0.00
   20    0.70    0.00    0.07    1.01    0.15    0.00  104.16    1.01    1.44    1.13    0.00    0.00    0.00    0.00    0.00     0.00    0.00    0.00    0.00
   21    1.04    0.00    0.07    1.00    0.13    0.00  104.86    0.19    0.23    1.12    0.00    0.00    0.00    0.00    0.00     0.00    0.00    0.00    0.00
   22    0.00    0.00    0.06    0.99    0.11    0.00  103.54    1.28    1.75    1.11    0.00    0.00    0.00    0.00    0.00     0.00    0.00    0.00    0.00
   23    0.70    0.00    0.06    0.99    0.09    0.00  104.03    0.10    0.14    1.10    0.00    0.00    0.00    0.00    0.00     0.00    0.00    0.00    0.00
   24    0.49    0.00    0.06    0.98    0.08    0.00  103.15    1.31    1.73    1.09    0.00    0.00    0.00    0.00    0.00     0.00    0.00    0.00    0.00
   25    0.00    0.00    0.06    0.96    0.07    0.00  101.45    1.74    3.83    1.08    0.00    0.00    0.00    0.00    0.00     0.00    0.00    0.00    0.00
   26    0.57    0.00    0.06    0.95    0.04    0.00  101.31    0.76    1.39    1.06    0.00    0.00    0.00    0.00    0.00     0.00    0.00    0.00    0.00
   27    0.37    0.00    0.06    0.94    0.03    0.00  100.63    1.04    2.00    1.05    0.00    0.00    0.00    0.00    0.00     0.00    0.00    0.00    0.00
   28    0.35    0.00    0.06    0.93    0.02    0.00  100.36    0.60    1.27    1.04    0.00    0.00    0.00    0.00    0.00     0.00    0.00    0.00    0.00
   29    0.68    0.00    0.06    0.92    0.02    0.00  100.60    0.45    0.66    1.03    0.00    0.00    0.00    0.00    0.00     0.00    0.00    0.00    0.00
   30    0.78    0.00    0.06    0.90    0.01    0.00  100.95    0.43    0.55    1.01    0.00    0.00    0.00    0.00    0.00     0.00    0.00    0.00    0.00
   31    1.15    0.00    0.06    0.89    0.01    0.00  100.35    1.81    2.58    1.00    0.00    0.00    0.00    0.00    0.00     0.00    0.00    0.00    0.00
    1   15.76    0.00    2.14   31.04   12.42    0.00  100.35   28.51   46.35   34.76    0.00    0.00    0.01    0.07    0.00     0.00    0.00    0.00    0.00
   32    1.44    0.00    0.06    0.88    0.00    0.00  100.68    1.12    1.40    0.98    0.00    0.00    0.00    0.00    0.00     0.00    0.00    0.00    0.00
   33    1.18    0.00    0.06    0.86    0.00    0.00  101.44    0.41    0.51    0.97    0.00    0.00    0.00    0.00    0.00     0.00    0.00    0.00    0.00
   34    0.78    0.00    0.06    0.85    0.00    0.00  101.37    0.90    1.11    0.95    0.00    0.00    0.00    0.00    0.00     0.00    0.00    0.00    0.00
   35    2.14    0.00    0.06    0.83    0.00    0.00  101.61    1.89    2.61    0.94    0.00    0.00    0.00    0.00    0.00     0.00    0.00    0.00    0.00
   36    9.98    0.78    0.06    0.82    0.01    0.00  109.54    0.84    0.87    1.58    0.35    0.00    0.00    0.00    0.00     0.09    0.00    0.01    0.00
   37    2.56    0.00    0.06    0.81    0.04    0.00  110.97    0.99    1.01    1.01    0.00    0.00    0.00    0.00    0.00     0.01    0.00    0.00    0.00
   38    2.82    0.00    0.06    0.79    0.13    0.00  112.71    0.87    0.90    0.92    0.00    0.00    0.00    0.00    0.00     0.00    0.00    0.00    0.00
   39    8.25    0.66    0.06    0.78    0.46    0.00  118.63    0.77    0.81    1.45    0.35    0.00    0.00    0.00    0.00     0.09    0.00    0.01    0.00
   40    1.74    0.00    0.06    0.76    0.62    0.00  119.01    0.62    0.64    0.95    0.00    0.00    0.00    0.00    0.00     0.01    0.00    0.00    0.00
   41    0.77    0.00    0.06    0.75    0.67    0.00  118.79    0.25    0.26    0.88    0.00    0.00    0.00    0.00    0.00     0.00    0.00    0.00    0.00
   42    2.21    0.00    0.06    0.74    0.77    0.00  119.39    0.71    0.73    0.85    0.00    0.00    0.00    0.00    0.00     0.00    0.00    0.00    0.00
   43    2.32    0.00    0.06    0.73    0.84    0.00  120.27    0.47    0.50    0.84    0.00    0.00    0.00    0.01    0.00     0.00    0.00    0.00    0.00
   44    1.37    0.00    0.06    0.72    0.87    0.00  119.27    1.48    1.53    0.83    0.00    0.00    0.00    0.01    0.00     0.00    0.00    0.00    0.00
   45    2.37    0.00    0.06    0.71    0.89    0.00  118.32    2.32    2.45    0.82    0.00    0.00    0.00    0.01    0.00     0.00    0.00    0.00    0.00
   46    2.07    0.00    0.06    0.71    0.83    0.00  118.17    1.36    1.41    0.81    0.00    0.00    0.00    0.01    0.00     0.00    0.00    0.00    0.00
   47    1.47    0.00    0.06    0.70    0.79    0.00  118.31    0.50    0.52    0.80    0.00    0.00    0.00    0.00    0.00     0.00    0.00    0.00    0.00
   48    0.00    0.00    0.06    0.69    0.72    0.00  114.57    3.11    4.13    0.80    0.00    0.00    0.00    0.00    0.00     0.00    0.00    0.00    0.00
   49    0.87    0.00    0.06    0.69    0.62    0.00  114.18    0.65    0.78    0.79    0.00    0.00    0.00    0.00    0.00     0.00    0.00    0.00    0.00
   50    1.47    0.00    0.06    0.68    0.55    0.00  113.78    1.28    1.32    0.78    0.00    0.00    0.00    0.00    0.00     0.00    0.00    0.00    0.00
   51    2.77    0.00    0.06    0.67    0.52    0.00  115.72    0.18    0.19    0.78    0.00    0.00    0.00    0.00    0.00     0.00    0.00    0.00    0.00
   52    2.97    0.00    0.06    0.67    0.60    0.00  117.74    0.18    0.19    0.77    0.00    0.00    0.00    0.00    0.00     0.00    0.00    0.00    0.00
   53    1.32    0.00    0.06    0.66    0.64    0.00  118.20    0.12    0.13    0.77    0.00    0.00    0.00    0.00    0.00     0.00    0.00    0.00    0.00
   54    0.03    0.00    0.06    0.66    0.63    0.00  115.58    2.10    2.32    0.76    0.00    0.00    0.00    0.00    0.00     0.00    0.00    0.00    0.00
   55    1.19    0.00    0.06    0.65    0.57    0.00  115.22    1.00    1.04    0.76    0.00    0.00    0.00    0.00    0.00     0.00    0.00    0.00    0.00
   56    2.17    0.00    0.06    0.65    0.56    0.00  115.64    1.14    1.18    0.75    0.00    0.00    0.00    0.00    0.00     0.00    0.00    0.00    0.00
   57   10.19    1.37    0.06    0.65    0.88    0.00  122.09    0.98    1.02    1.90    0.91    0.00    0.00    0.01    0.00     0.22    0.00    0.03    0.00
   58    7.02    0.53    0.06    0.64    1.20    0.00  126.62    0.32    0.32    1.36    0.01    0.00    0.00    0.01    0.00     0.11    0.00    0.01    0.00
   59    1.23    0.00    0.06    0.64    1.31    0.00  124.51    1.94    1.98    0.85    0.00    0.00    0.00    0.01    0.00     0.02    0.00    0.00    0.00
    2   74.69    3.36    1.64   20.40   15.73    0.00  124.51   28.48   31.87   26.68    1.62    0.00    0.01    0.09    0.00     0.55    0.00    0.07    0.00
   60    2.97    0.00    0.06    0.64    1.35    0.00  124.88    1.10    1.14    0.78    0.00    0.00    0.00    0.01    0.00     0.00    0.00    0.00    0.00
   61    8.95    1.24    0.07    0.64    1.62    0.00  129.78    0.71    0.75    1.79    0.70    0.00    0.00    0.01    0.00     0.17    0.00    0.02    0.00
   62    1.75    0.00    0.07    0.64    1.68    0.00  129.00    0.74    0.78    0.91    0.00    0.00    0.00    0.01    0.00     0.02    0.00    0.00    0.00
   63    2.48    0.00    0.07    0.65    1.72    0.00  127.30    2.36    2.48    0.79    0.00    0.00    0.00    0.01    0.00     0.00    0.00    0.00    0.00
   64    1.79    0.00    0.07    0.65    1.62    0.00  126.13    1.28    1.34    0.77    0.00    0.00    0.00    0.01    0.00     0.00    0.00    0.00    0.00
   65    3.27    0.00    0.07    0.66    1.60    0.00  125.35    2.32    2.42    0.77    0.00    0.00    0.00    0.01    0.00     0.00    0.00    0.00    0.00
   66    3.76    0.02    0.07    0.66    1.56    0.00  125.63    1.78    1.86    0.79    0.01    0.00    0.00    0.01    0.00     0.00    0.00    0.00    0.00
   67    0.88    0.00    0.07    0.67    1.45    0.00  123.59    1.45    1.55    0.78    0.00    0.00    0.00    0.01    0.00     0.00    0.00    0.00    0.00
   68    3.67    0.01    0.07    0.68    1.42    0.00  123.67    2.01    2.07    0.80    0.00    0.00    0.00    0.01    0.00     0.00    0.00    0.00    0.00
   69    1.21    0.00    0.07    0.68    1.30    0.00  122.76    0.76    0.82    0.80    0.00    0.00    0.00    0.01    0.00     0.00    0.00    0.00    0.00
   70    0.86    0.00    0.07    0.69    1.19    0.00  120.95    1.51    1.56    0.80    0.00    0.00    0.00    0.01    0.00     0.00    0.00    0.00    0.00
   71    2.63    0.00    0.07    0.70    1.13    0.00  120.46    1.89    1.94    0.81    0.00    0.00    0.00    0.01    0.02     0.00    0.00    0.00    0.00
   72    2.00    0.00    0.06    0.71    1.05    0.00  118.81    2.57    2.84    0.82    0.00    0.00    0.00    0.01    0.04     0.00    0.00    0.00    0.00
   73    7.75    0.64    0.07    0.72    1.17    0.00  122.13    2.33    2.41    1.36    0.46    0.23    0.00    0.02    0.06     0.10    0.00    0.01    0.00
   74    2.38    0.01    0.07    0.72    1.14    0.00  122.46    0.77    0.81    0.92    0.00    0.04    0.00    0.03    0.08     0.02    0.00    0.00    0.00
   75    3.26    0.00    0.07    0.73    1.19    0.00  122.55    1.90    1.97    0.86    0.00    0.01    0.00    0.04    0.16     0.00    0.00    0.00    0.00
   76    5.42    0.16    0.07    0.74    1.32    0.00  123.56    2.76    3.10    0.99    0.09    0.07    0.00    0.07    0.32     0.02    0.00    0.00    0.00
   77    6.00    0.31    0.07    0.75    1.44    0.00  125.03    2.43    2.60    1.14    0.15    0.05    0.00    0.09    0.04     0.05    0.00    0.01    0.00
   78   12.03    2.73    0.07    0.75    1.74    0.00  131.15    0.82    0.85    3.20    1.98    0.13    0.00    0.13    0.19     0.45    0.00    0.06    0.00
   79    9.79    1.92    0.08    0.76    2.09    0.00  134.24    2.14    2.17    2.86    0.26    0.07    0.00    0.18    0.17     0.36    0.00    0.05    0.00
   80    2.17    0.00    0.08    0.78    2.11    0.00  131.63    2.51    2.71    1.22    0.00    0.02    0.00    0.18    0.23     0.05    0.00    0.01    0.00
   81    5.45    0.28    0.08    0.79    2.15    0.00  132.64    1.72    1.76    1.22    0.18    0.01    0.00    0.17    0.34     0.05    0.00    0.01    0.00
   82    3.47    0.02    0.08    0.80    2.14    0.00  129.97    3.82    4.90    0.99    0.00    0.00    0.00    0.17    0.51     0.01    0.00    0.00    0.00
   83   10.48    2.14    0.08    0.81    2.24    0.00  132.54    2.98    3.50    2.74    1.39    0.00    0.00    0.17    0.37     0.31    0.00    0.04    0.00
   84    3.69    0.03    0.08    0.83    2.18    0.00  130.43    3.47    4.25    1.26    0.00    0.00    0.00    0.15    0.67     0.05    0.00    0.01    0.00
   85   46.44   30.04    0.09    0.85    2.65    0.00  138.87    3.17    3.75   26.31   27.37    0.35    0.00    0.20    0.37     5.35    0.00    0.69    0.00
   86    0.77    0.00    0.09    0.86    2.53    0.00  136.18    0.85    0.98    4.75    0.00    0.04    0.00    0.19    0.40     0.68    0.00    0.09    0.00
   87   18.38    7.48    0.09    0.88    2.84    0.00  142.37    0.88    0.92    8.08    5.75    0.93    0.00    0.26    0.45     0.84    0.00    0.11    0.00
   88    0.78    0.00    0.09    0.90    2.78    0.00  137.72    2.58    2.67    2.16    0.00    0.12    0.00    0.26    0.89     0.13    0.00    0.02    0.00
   89   19.60    8.55    0.09    0.92    3.03    0.00  144.19    0.45    0.46    8.48    6.08    0.65    0.00    0.32    0.39     0.75    0.00    0.10    0.00
   90    6.10    0.73    0.10    0.94    3.17    0.00  144.67    1.33    1.38    2.83    0.00    0.14    0.00    0.35    1.23     0.18    0.00    0.02    0.00
    3  200.19   56.33    2.27   23.22   56.59    0.00  144.67   57.40   62.73   82.79   44.42    2.86    0.03    3.09    6.94     9.60    0.00    1.25    0.00
   91   10.64    3.11    0.10    0.97    3.38    0.00  146.41    1.89    1.95    4.06    1.96    0.91    0.00    0.42    1.52     0.23    0.00    0.03    0.00
   92    8.40    1.81    0.10    1.00    3.49    0.00  147.60    1.42    1.47    3.12    0.15    0.36    0.00    0.45    2.00     0.16    0.00    0.02    0.00
   93   10.47    2.95    0.10    1.02    3.65    0.00  148.81    2.06    2.13    3.98    1.19    0.24    0.00    0.45    2.41     0.18    0.00    0.02    0.00
   94   26.91   15.45    0.11    1.05    3.95    0.00  152.28    2.57    2.63   14.68    8.20    0.26    0.00    0.45    2.99     0.97    0.00    0.13    0.00
   95   23.14   12.85    0.11    1.08    4.16    0.00  155.72    1.22    1.25   14.14    0.60    0.71    0.00    0.44    2.15     0.69    0.00    0.09    0.00
   96    7.86    1.82    0.11    1.12    4.26    0.00  155.57    1.42    1.47    4.78    0.55    0.31    0.00    0.39    3.83     0.19    0.00    0.02    0.00
   97    3.75    0.22    0.11    1.15    4.19    0.00  153.22    1.39    1.43    2.13    0.02    0.06    0.00    0.30    3.89     0.04    0.00    0.01    0.00
   98    8.43    2.11    0.11    1.19    4.20    0.00  153.40    1.42    1.45    3.29    0.52    0.21    0.00    0.26    2.59     0.06    0.00    0.01    0.00
   99   16.60    7.58    0.12    1.23    4.32    0.00  155.70    1.39    1.44    8.09    1.14    0.08    0.00    0.23    2.45     0.18    0.00    0.02    0.00
  100   12.57    4.78    0.12    1.27    4.42    0.00  157.63    0.62    0.64    6.46    0.09    1.01    0.00    0.27    1.21     0.11    0.00    0.01    0.00
  101   11.20    4.02    0.12    1.31    4.54    0.00  157.92    1.65    1.70    5.66    0.51    0.34    0.00    0.27    4.90     0.09    0.00    0.01    0.00
  102    1.31    0.00    0.12    1.35    4.32    0.00  152.95    1.79    1.83    2.21    0.00    0.06    0.00    0.19    3.84     0.02    0.00    0.00    0.00
  103    2.56    0.03    0.12    1.39    4.07    0.00  148.51    2.73    2.78    1.74    0.00    0.02    0.00    0.14    4.25     0.00    0.00    0.00    0.00
  104    2.28    0.00    0.12    1.44    3.74    0.00  145.31    1.59    1.64    1.65    0.00    0.00    0.00    0.06    2.88     0.00    0.00    0.00    0.00
  105    3.73    0.10    0.12    1.48    3.50    0.00  142.41    2.90    2.98    1.75    0.00    0.01    0.00    0.03    3.54     0.00    0.00    0.00    0.00
  106    0.09    0.00    0.12    1.52    3.14    0.00  135.46    3.98    4.39    1.71    0.00    0.00    0.00    0.01    2.41     0.00    0.00    0.00    0.00
  107    0.15    0.00    0.12    1.56    2.79    0.00  124.20    8.75    9.92    1.73    0.00    0.00    0.00    0.00    1.34     0.00    0.00    0.00    0.00
[...]
     33   6   Haplic A   .140E+03   81.00  113.00    3.30    0.00  348.29    0.00    0.20 1749.83  626.39  456.96  617.61   96.59    3.56   27.87    7.19    3.00  626.39
     34   6   Haplic A   .819E+02   81.00  113.00    5.48    0.00  348.26    0.00    0.20 1749.83  619.70  465.59  616.93  175.88    3.65   29.20    7.19    3.00  619.70
     35   6   Haplic A   .416E+02   81.00  113.00   10.51    0.00  348.24    0.00    0.20 1749.83  614.38  472.27  616.42  334.44    3.73   30.54    7.18    3.00  614.38
     36   6   Haplic A   .973E+02   81.00  113.00    1.92    0.00  347.14    0.00    0.20 1749.83  629.98  452.44  617.94   51.74    3.55   25.94    7.20    3.01  629.98
     37   6   Cumulic    .111E+02   92.00  133.00    1.61    0.00    0.00    0.00    0.20 1749.83    0.00    0.00 1023.65    0.00    0.00    0.00    0.00    0.00    0.00
     38   6   Cumulic    .602E+01   92.00  133.00    3.03    0.00    0.00    0.00    0.20 1749.83    0.00    0.00 1023.65    0.00    0.00    0.00    0.00    0.00    0.00
     39   6   Haplic A   .567E+01   92.00  113.00    5.39    0.00    0.00    0.00    0.20 1749.83    0.00    0.00 1023.65    0.00    0.00    0.00    0.00    0.00    0.00
     40   6   Haplic A   .141E+02   92.00  113.00    1.76    0.00    0.00    0.00    0.20 1749.83    0.00    0.00 1023.65    0.00    0.00    0.00    0.00    0.00    0.00
     41   6   Haplic A   .134E+02   92.00  113.00    3.18    0.00    0.00    0.00    0.20 1749.83    0.00    0.00 1023.65    0.00    0.00    0.00    0.00    0.00    0.00
     42   7   Cumulic    .144E+02   81.00  133.00    3.13    0.00  350.00    0.00    0.20 1723.47  484.29  561.89  623.99   62.85    3.03   26.06    7.67    3.20  484.29
     43   7   Cumulic    .174E+02   81.00  133.00    1.73    0.00  350.00    0.00    0.20 1723.47  486.57  554.89  625.95   31.67    2.58   23.36    7.65    3.19  486.57
     44   7   Cumulic    .444E+01   81.00  133.00    5.32    0.00  350.00    0.00    0.20 1723.47  481.21  571.91  621.86   96.52    3.65   27.40    7.69    3.20  481.21
     45   7   Haplic A   .401E+02   81.00  113.00    5.39    0.00  350.00    0.00    0.20 1723.47  599.19  446.77  629.66  161.52    4.60   28.33    7.44    3.10  599.19
     46   7   Haplic A   .839E+02   81.00  113.00    3.27    0.00  350.00    0.00    0.20 1723.47  605.43  438.55  630.40   81.13    4.53   27.14    7.46    3.11  605.43
     47   7   Haplic A   .605E+02   81.00  113.00    1.85    0.00  350.00    0.00    0.20 1723.47  608.80  434.12  630.85   44.60    4.73   25.43    7.44    3.10  608.80
     48   8   Haplic A   .919E+02   81.00  113.00   10.35    0.00  349.00    0.00    0.20 1722.30  589.96  456.72  628.30  362.19    4.93   29.92    7.57    3.16  589.96
     49   8   Haplic A   .192E+03   81.00  113.00    5.48    0.00  349.00    0.00    0.20 1722.30  594.84  450.45  628.88  157.93    4.87   28.57    7.59    3.17  594.84
     50   8   Haplic A   .164E+03   81.00  113.00    2.01    0.00  345.97    0.00    0.20 1722.30  604.56  437.80  629.96   51.99    4.36   26.01    7.62    3.18  604.56
     51   8   Haplic A   .295E+03   81.00  113.00    3.35    0.00  349.00    0.00    0.20 1722.30  601.13  442.18  629.59   77.30    4.58   27.32    7.62    3.18  601.13
     52   9   Haplic A   .910E+02   81.00  113.00    5.51    0.00  350.00    0.00    0.20 1755.92  615.14  463.61  629.05  149.17    4.12   28.77    7.33    3.05  615.14
     53   9   Haplic A   .126E+03   81.00  113.00    3.40    0.00  350.00    0.00    0.20 1755.92  621.76  454.98  629.79   78.20    4.05   27.39    7.33    3.06  621.76
     54   9   Haplic A   .453E+02   81.00  113.00   10.35    0.00  128.64    0.00    0.20 1755.92  610.93  473.26  624.24  297.40    6.68   32.42    8.75    3.65  610.93
     55   9   Haplic A   .601E+02   81.00  113.00    2.04    0.00  350.00    0.00    0.20 1755.92  625.41  450.41  630.09   52.49    3.99   25.90    7.35    3.06  625.41
     56  10   Haplic A   .790E+02   81.00  113.00    5.46    0.00  350.00    0.00    0.20 1742.64  605.59  465.53  624.00  155.35    5.65   28.79    7.36    3.07  605.59
     57  10   Haplic A   .376E+02   81.00  113.00   10.43    0.00  350.00    0.00    0.20 1742.64  600.35  472.17  623.43  309.22    5.66   30.25    7.36    3.07  600.35
     58  10   Haplic A   .804E+02   81.00  113.00    1.95    0.00  350.00    0.00    0.20 1742.64  615.82  452.49  624.94   46.48    5.46   25.33    7.38    3.08  615.82
     59  10   Haplic A   .137E+03   81.00  113.00    3.32    0.00  350.00    0.00    0.20 1742.64  612.22  457.01  624.63   79.69    5.15   27.28    7.37    3.07  612.22
     60  11   Haplic A   .766E+02   81.00  113.00    3.35    0.00  349.94    0.00    0.20 1751.13  613.97  458.42  629.48   93.43    4.41   27.56    7.38    3.08  613.97
     61  11   Haplic A   .426E+02   81.00  113.00    2.01    0.00  349.93    0.00    0.20 1751.13  617.58  453.85  629.80   52.95    4.37   25.76    7.39    3.08  617.58
     62  11   Haplic A   .482E+02   81.00  113.00    5.48    0.00  349.99    0.00    0.20 1751.13  607.33  467.03  628.77  166.81    4.45   28.85    7.38    3.08  607.33
     63  11   Haplic A   .228E+02   81.00  113.00   10.33    0.00  128.81    0.00    0.20 1751.13  603.11  476.68  623.99  280.45    5.42   32.57    8.80    3.68  603.11
     64  11   Cumulic    .133E+01   92.00  133.00    5.41    0.00    0.00    0.00    0.20 1751.13    0.00    0.00 1032.63    0.00    0.00    0.00    0.00    0.00    0.00
     65  11   Cumulic    .264E+01   92.00  133.00    3.27    0.00    0.00    0.00    0.20 1751.13    0.00    0.00 1032.63    0.00    0.00    0.00    0.00    0.00    0.00
     66  11   Cumulic    .187E+01   92.00  133.00    1.92    0.00    0.00    0.00    0.20 1751.13    0.00    0.00 1032.63    0.00    0.00    0.00    0.00    0.00    0.00
     67  11   Haplic A   .461E+01   92.00  113.00    5.44    0.00    0.00    0.00    0.20 1751.13    0.00    0.00 1032.63    0.00    0.00    0.00    0.00    0.00    0.00
     68  11   Haplic A   .953E+01   92.00  113.00    3.25    0.00    0.00    0.00    0.20 1751.13    0.00    0.00 1032.63    0.00    0.00    0.00    0.00    0.00    0.00
     69  11   Haplic A   .683E+01   92.00  113.00    1.98    0.00    0.00    0.00    0.20 1751.13    0.00    0.00 1032.63    0.00    0.00    0.00    0.00    0.00    0.00
     70  12   Haplic A   .163E+01   81.00  113.00    2.01    0.00  350.00    0.00    0.20 1744.61  610.76  448.69  635.42   39.47    5.77   24.25    7.37    3.08  610.76
     71  12   Haplic A   .255E+01   81.00  113.00    3.20    0.00  350.00    0.00    0.20 1744.61  607.27  453.14  635.07   71.19    5.81   26.47    7.37    3.08  607.27
     72  12   Haplic A   .699E+00   81.00  113.00    5.20    0.00  350.00    0.00    0.20 1744.61  600.87  461.40  634.44  103.35    5.88   27.62    7.36    3.07  600.87
     73  12   Water bo   .962E+00   84.00    0.25    3.25    0.00  153.33    4.85    0.20 1744.61 1180.07   13.79  472.73    0.00   26.63    0.00    4.88    2.03 1180.07
     74  12   Water bo   .424E+00   84.00    0.25    5.34    0.00  153.34    4.85    0.20 1744.61 1180.05   13.80  472.72    0.00   26.63    0.00    4.88    2.03 1180.05
     75  12   Water bo   .668E+00   84.00    0.25    1.98    0.00  153.32    4.85    0.20 1744.61 1180.08   13.79  472.74    0.00   26.63    0.00    4.88    2.03 1180.08
     76  12   Haplic A   .824E-01   83.00  113.00    5.44    0.00  350.00    0.00    0.20 1744.61  636.07  401.66  662.26  424.68    5.08   28.61    5.43    3.99  636.07
     77  12   Haplic A   .997E-01   83.00  113.00    2.07    0.00  350.00    0.00    0.20 1744.61  644.88  389.94  663.47  151.00    5.11   27.39    5.44    4.00  644.88
     78  12   Haplic A   .188E+00   83.00  113.00    3.35    0.00  350.00    0.00    0.20 1744.61  641.77  394.02  663.08  285.46    5.14   28.24    5.44    4.00  641.77
     79  12   Water bo   .136E+00   87.00    0.25    5.48    0.00  145.38    3.58    0.20 1744.61 1180.79   12.11  479.96    0.00   27.30    0.00    3.87    2.86 1180.79
     80  12   Water bo   .250E+00   87.00    0.25    3.30    0.00  103.41    1.47    0.20 1744.61 1181.89   12.13  480.11    0.00   38.69    0.00    3.61    2.66 1181.89
     81  12   Water bo   .149E+00   87.00    0.25    2.27    0.00  145.37    3.58    0.20 1744.61 1180.82   12.10  479.99    0.00   27.30    0.00    3.87    2.86 1180.82
     82  13   Haplic A   .163E+03   81.00  113.00    5.53    0.00  350.00    0.00    0.20 1730.69  591.04  454.71  637.00  144.40    4.61   28.77    7.43    3.10  591.04
     83  13   Haplic A   .224E+03   81.00  113.00    3.37    0.00  350.00    0.00    0.20 1730.69  597.55  446.41  637.52   75.05    4.49   27.39    7.49    3.12  597.55
     84  13   Haplic A   .120E+03   81.00  113.00    2.01    0.00  350.00    0.00    0.20 1730.69  601.05  441.89  637.90   48.58    4.43   25.81    7.50    3.13  601.05
     85  13   Haplic A   .958E+02   81.00  113.00   10.75    0.00  350.00    0.00    0.20 1730.69  585.71  461.41  636.52  325.14    4.92   30.27    7.40    3.09  585.71
     86  14   Haplic A   .138E+03   81.00  113.00    5.48    0.00  350.00    0.00    0.20 1730.82  588.61  446.27  648.37  149.28    4.60   28.93    7.31    3.05  588.61
     87  14   Haplic A   .140E+03   81.00  113.00    1.98    0.00  350.00    0.00    0.20 1730.82  598.60  433.28  649.48   45.41    4.73   25.54    7.33    3.06  598.60
     88  14   Haplic A   .223E+03   81.00  113.00    3.32    0.00  128.45    0.00    0.20 1730.82  596.06  441.05  644.67   65.30    5.68   28.67    8.83    3.68  596.06
     89  14   Haplic A   .713E+02   81.00  113.00   10.59    0.00  129.58    0.00    0.20 1730.82  584.30  456.32  643.29  271.13    6.57   33.13    8.81    3.67  584.30
     90  14   Cumulic    .958E+01   92.00  133.00    1.82    0.00    0.00    0.00    0.20 1730.82    0.00    0.00 1056.56    0.00    0.00    0.00    0.00    0.00    0.00
     91  14   Cumulic    .935E+01   92.00  133.00    3.18    0.00    0.00    0.00    0.20 1730.82    0.00    0.00 1056.56    0.00    0.00    0.00    0.00    0.00    0.00
     92  14   Cumulic    .356E+01   92.00  133.00    5.34    0.00    0.00    0.00    0.20 1730.82    0.00    0.00 1056.56    0.00    0.00    0.00    0.00    0.00    0.00
     93  14   Haplic A   .249E+02   92.00  113.00    3.23    0.00    0.00    0.00    0.20 1730.82    0.00    0.00 1056.56    0.00    0.00    0.00    0.00    0.00    0.00
     94  14   Haplic A   .118E+02   92.00  113.00    5.46    0.00    0.00    0.00    0.20 1730.82    0.00    0.00 1056.56    0.00    0.00    0.00    0.00    0.00    0.00
     95  14   Haplic A   .220E+02   92.00  113.00    1.85    0.00    0.00    0.00    0.20 1730.82    0.00    0.00 1056.56    0.00    0.00    0.00    0.00    0.00    0.00
     96  15   Haplic A   .841E+00   81.00  113.00    1.56    0.00  347.66    0.00    0.20 1733.56  601.49  443.92  638.55   27.28    4.85   22.73    7.00    2.93  601.49
     97  15   Haplic A   .115E+01   81.00  113.00   10.99    0.00  124.90    0.00    0.20 1733.56  586.52  467.82  632.27  189.01    6.98   31.58    8.55    3.57  586.52
     98  15   Haplic A   .143E+01   81.00  113.00    5.56    0.00  349.69    0.00    0.20 1733.56  591.20  457.19  637.49  112.64    4.88   27.93    7.00    2.93  591.20
     99  15   Haplic A   .146E+01   81.00  113.00    3.45    0.00  347.67    0.00    0.20 1733.56  597.79  448.63  638.17   69.57    4.89   26.51    7.00    2.92  597.79
    100  15   Water bo   .886E+00   84.00    0.25   11.90    0.00  138.82    2.98    0.20 1733.56 1167.73   13.90  472.95    0.00   27.49    0.00    4.31    1.77 1167.73
    101  15   Water bo   .776E+00   84.00    0.25    5.63    0.00  138.81    2.98    0.20 1733.56 1167.75   13.89  472.97    0.00   27.19    0.00    4.31    1.77 1167.75
    102  15   Water bo   .994E+00   84.00    0.25    3.40    0.00  138.80    2.98    0.20 1733.56 1167.76   13.88  472.98    0.00   27.19    0.00    4.31    1.77 1167.76
    103  15   Water bo   .171E+01   84.00    0.25    0.77    0.00  138.80    2.98    0.20 1733.56 1167.77   13.88  472.99    0.00   27.19    0.00    4.31    1.77 1167.77
    104  15   Haplic A   .213E+00   83.00  113.00    0.80    0.00  350.00    0.00    0.20 1733.56  636.31  386.42  664.65   55.19    5.73   25.29    5.47    4.02  636.31
    105  15   Haplic A   .281E+00   83.00  113.00   11.10    0.00  350.00    1.97    0.20 1733.56  622.16  404.92  662.85  976.87    5.84   29.08    5.46    4.02  622.16
    106  15   Haplic A   .123E+00   83.00  113.00    5.82    0.00  145.83    2.97    0.20 1733.56  627.46  402.13  659.35  431.17    8.83   31.57    9.15    6.74  627.46
    107  15   Haplic A   .133E+00   83.00  113.00    3.27    0.00  350.00    0.00    0.20 1733.56  632.99  390.68  664.25  262.61    5.72   28.14    5.46    4.02  632.99
    108  15   Water bo   .371E+00   87.00    0.25    3.23    0.00  145.48    5.07    0.20 1733.56 1165.43   12.61  481.46    0.00   23.51    0.00    4.25    3.14 1165.43
    109  15   Water bo   .255E+01   87.00    0.25    0.21    0.00  145.48    5.07    0.20 1733.56 1165.44   12.61  481.47    0.00   23.51    0.00    4.25    3.14 1165.44



                AVE MONTHLY BASIN VALUES
                   SNOW                      WATER               SED
  MON     RAIN     FALL   SURF Q    LAT Q    YIELD       ET    YIELD      PET
          (MM)     (MM)     (MM)     (MM)     (MM)     (MM)   (T/HA)     (MM)
    1    77.20     0.42    27.42     1.73    42.57    24.20    10.82    42.24
    2    98.16     0.23    21.32     1.64    37.43    30.04    15.39    38.82
    3   204.21     0.00    76.36     2.48   105.53    46.50    55.11    54.25
    4   210.01     0.00    74.10     2.93   120.26    73.10    18.49    83.70
    5   274.10     0.00   112.50     3.47   169.64    85.83     2.44   102.22
    6   252.57     0.00   106.94     3.83   169.34    73.68     2.37   118.01
    7   134.43     0.00    32.64     3.58    95.63    73.72     1.08   142.77
    8   185.05     0.00    50.09     3.42   101.46    75.58     2.41   112.46
    9   124.14     0.00    30.73     3.29    78.00    61.62     1.89    96.80
   10    43.40     0.00     9.85     2.78    49.42    41.34     1.15   110.62
   11    69.19     0.00    19.09     2.16    38.63    27.73     3.98    67.56
   12    64.25     0.00    20.23     2.03    36.46    24.53     4.71    48.35

     AVE ANNUAL BASIN STRESS DAYS
               WATER STRESS DAYS =     0.16
               TEMPERATURE STRESS DAYS =     0.80
               NITROGEN STRESS DAYS =     9.76
               PHOSPHORUS STRESS DAYS =     0.02
               AERATION STRESS DAYS =     0.02
1
    SWAT May 26   VER 2020/Rev 681                                                  

    General Input/Output section (file.cio):                                        
    2024/8/23 0:00:00 ARCGIS-SWAT interface AV                                      
                                                                                    
         AVE ANNUAL BASIN VALUES

              PRECIP =   1737.8 MM
              SNOW FALL =    0.65 MM
              SNOW MELT =     0.63 MM
              SUBLIMATION =     0.02 MM
              SURFACE RUNOFF Q =   581.49 MM
              LATERAL SOIL Q =   33.35 MM
              TILE Q =     0.00 MM
              GROUNDWATER (SHAL AQ) Q =   407.75 MM
              GROUNDWATER (DEEP AQ) Q =    22.19 MM
              REVAP (SHAL AQ => SOIL/PLANTS) =   19.13 MM
              DEEP AQ RECHARGE =    22.47 MM
              TOTAL AQ RECHARGE =  449.39 MM
              TOTAL WATER YLD =  1044.78 MM
              PERCOLATION OUT OF SOIL =  449.79 MM
              ET =    638.2 MM
              PET =   1018.2MM
              TRANSMISSION LOSSES =     0.00 MM
              SEPTIC INFLOW =       0.00 MM
              TOTAL SEDIMENT LOADING =    120.02 T/HA
              TILE FROM IMPOUNDED WATER =     0.000 (MM)
              EVAPORATION FROM IMPOUNDED WATER =     0.000 (MM)
              SEEPAGE INTO SOIL FROM IMPOUNDED WATER =    0.000 (MM)
              OVERFLOW FROM IMPOUNDED WATER =    0.000 (MM)
1
    SWAT May 26   VER 2020/Rev 681                                                  

    General Input/Output section (file.cio):                                        
    2024/8/23 0:00:00 ARCGIS-SWAT interface AV                                      
                                                                                    
              AVE ANNUAL BASIN VALUES


              NUTRIENTS
                   ORGANIC N =    26.701 (KG/HA)
                   ORGANIC P =     3.842 (KG/HA)
                   NO3 YIELD (SQ) =     3.980 (KG/HA)
                   NO3 YIELD (LAT) =    0.297 (KG/HA)
                   NO3 YIELD (TILE) =    0.000 (KG/HA)
                   SOLP YIELD (TILE) =    0.000(KG/HA)
                   SOLP YIELD (SURF INLET RISER) =    0.000 (KG/HA)
                   SOL P YIELD =    0.043 (KG/HA)
                   NO3 LEACHED =     8.082 (KG/HA)
                   P LEACHED =     0.195 (KG/HA)
                   N UPTAKE =    61.977 (KG/HA)
                   P UPTAKE =    9.410 (KG/HA)
                   NO3 YIELD (GWQ) =     0.098 (KG/HA)
                   ACTIVE TO SOLUTION P FLOW =        -4.781 (KG/HA)
                   ACTIVE TO STABLE P FLOW =        -1.506 (KG/HA)
                   N FERTILIZER APPLIED =   306.476 (KG/HA)
                   P FERTILIZER APPLIED =     0.000 (KG/HA)
                   N FIXATION =     0.000 (KG/HA)
                   DENITRIFICATION =   250.229 (KG/HA)
                   HUMUS MIN ON ACTIVE ORG N =     6.398 (KG/HA)
                   ACTIVE TO STABLE ORG N =    -2.885 (KG/HA)
                   HUMUS MIN ON ACTIVE ORG P =    1.100 (KG/HA)
                   MIN FROM FRESH ORG N =   10.691 (KG/HA)
                   MIN FROM FRESH ORG P =    3.544 (KG/HA)
                   NO3 IN RAINFALL =     0.000 (KG/HA)
                   INITIAL NO3 IN SOIL =      41.747 (KG/HA)
                   FINAL NO3 IN SOIL =         4.083 (KG/HA)
                   INITIAL ORG N IN SOIL =    6114.656 (KG/HA)
                   FINAL ORG N IN SOIL =      5827.768 (KG/HA)
                   INITIAL MIN P IN SOIL =    2118.893 (KG/HA)
                   FINAL MIN P IN SOIL =      2001.188 (KG/HA)
                   INITIAL ORG P IN SOIL =     749.045 (KG/HA)
                   FINAL ORG P IN SOIL =     714.320 (KG/HA)
                   NO3 IN FERT =   306.476 (KG/HA)
                   AMMONIA IN FERT =     0.000 (KG/HA)
                   ORG N IN FERT =     0.000 (KG/HA)
                   MINERAL P IN FERT =     0.004 (KG/HA)
                   ORG P IN FERT =     0.000 (KG/HA)
                   N REMOVED IN YIELD =    49.014 (KG/HA)
                   P REMOVED IN YIELD =     5.104 (KG/HA)
                   AMMONIA VOLATILIZATION =     0.000 (KG/HA)
                   AMMONIA NITRIFICATION =      0.000 (KG/HA)
                   NO3 EVAP-LAYER 2 TO 1 =    1.399

                   DIE-GRO P Q =           0.0 (No/M2)
                   DIE-GRO LP Q =           0.0 (No/M2)
                   DIE-GRO P SED =          0.0 (No/M2)
                   DIE-GRO LP SED =          0.0 (No/M2)
                   BACT P RUNOFF =          0.0 (No/M2)
                   BACT LP RUNOFF =          0.0 (No/M2)
                   BACT P SEDIMENT =          0.0 (No/M2)
                   BACT LP SEDIMENT =          0.0 (No/M2)
                   BACT P INCORP =          0.0 (No/M2)
                   BACT LP INCORP =          0.0 (No/M2)

                   NITRATE SEPTIC =         0.00 (kg/ha)
                   AMMONIA SEPTIC =         0.00 (kg/ha)
                   ORG N SEPTIC =         0.00 (kg/ha)
                   FRESH ORGN SEPTIC =         0.00 (kg/ha)
                   ORG P SEPTIC =         0.00 (kg/ha)
                   FRESH ORGP SEPTIC =         0.00 (kg/ha)
                   SOL P SEPTIC =         0.00 (kg/ha)
                   BOD SEPTIC =         0.00 (kg/ha)
